 26
 0.000000
  C 0.925927 0.047714 0.290128
  C 2.416760 0.059769 0.076430
  C 3.237448 -0.011557 1.340584
  H 2.633571 -0.062341 2.240530
  C 3.001467 0.128145 -1.135308
  C 2.353890 0.205378 -2.504043
  C 0.840961 0.217017 -2.710277
  C 0.520211 0.301106 -4.200515
  C 4.459884 0.133329 -1.227105
  C 5.199146 0.195905 -2.336197
  O 6.558756 0.196733 -2.350828
  H 0.651926 -0.011705 1.343108
  H 0.471160 -0.813526 -0.192890
  H 0.471161 0.957826 -0.092936
  H 3.879155 0.866964 1.423038
  H 3.879158 -0.893777 1.323685
  H 2.742829 -0.642756 -3.078237
  H 2.742830 1.112724 -2.979179
  H 0.390771 1.076801 -2.216012
  H 0.390775 -0.692911 -2.315875
  H 0.932823 1.209388 -4.635007
  H -0.556861 0.309749 -4.353667
  H 0.932824 -0.552533 -4.734429
  H 5.007511 0.080809 -0.296306
  H 4.820296 0.252721 -3.343096
  H 6.891316 0.145637 -1.445232
 26
 3.608790
  C 0.925307 0.049066 0.266141
  C 2.390954 0.060430 0.064717
  C 3.223733 -0.010875 1.328492
  H 2.598814 -0.060982 2.216507
  C 2.992656 0.128253 -1.137227
  C 2.351080 0.205653 -2.508956
  C 0.837296 0.217032 -2.710561
  C 0.517189 0.301136 -4.201035
  C 4.449235 0.133004 -1.221347
  C 5.196817 0.195334 -2.326091
  O 6.557916 0.195614 -2.330997
  H 0.895022 -0.010477 1.321325
  H 0.428407 -0.815016 -0.175580
  H 0.428407 0.957355 -0.075569
  H 3.863903 0.867077 1.424845
  H 3.863912 -0.894093 1.325470
  H 2.743307 -0.642328 -3.081176
  H 2.743304 1.112628 -2.982152
  H 0.388668 1.076613 -2.213799
  H 0.388667 -0.692975 -2.313653
  H 0.932531 1.209099 -4.633505
  H -0.559285 0.310005 -4.358183
  H 0.932524 -0.552406 -4.732896
  H 4.991985 0.080280 -0.286910
  H 4.823321 0.252264 -3.335069
  H 6.885811 0.144424 -1.423699
 26
 12.313934
  C 0.880412 0.050503 0.240538
  C 2.358750 0.061124 0.052398
  C 3.194934 -0.009474 1.303635
  H 2.588865 -0.060645 2.210424
  C 2.991732 0.128599 -1.143391
  C 2.360274 0.205857 -2.512602
  C 0.848735 0.216512 -2.701337
  C 0.513163 0.300402 -4.188039
  C 4.457221 0.132777 -1.217379
  C 5.210690 0.194925 -2.318888
  O 6.569977 0.194847 -2.317433
  H 1.067402 -0.007924 1.275993
  H 0.380119 -0.808514 -0.149128
  H 0.380111 0.947903 -0.050019
  H 3.831393 0.871565 1.394896
  H 3.831386 -0.895158 1.295204
  H 2.751041 -0.642170 -3.082462
  H 2.751060 1.112625 -2.983463
  H 0.406936 1.076621 -2.197064
  H 0.406928 -0.694862 -2.297016
  H 0.925042 1.208266 -4.624511
  H -0.564295 0.308717 -4.335338
  H 0.925021 -0.552580 -4.723851
  H 4.995287 0.080166 -0.284845
  H 4.841518 0.251904 -3.328859
  H 6.894199 0.143539 -1.407928
 26
 25.959782
  C 0.843325 0.051329 0.225799
  C 2.340936 0.061305 0.049073
  C 3.196149 -0.009287 1.300255
  H 2.614876 -0.061272 2.221479
  C 2.992665 0.128473 -1.141274
  C 2.363085 0.206001 -2.515204
  C 0.849053 0.216495 -2.701041
  C 0.509789 0.300333 -4.186836
  C 4.453023 0.132330 -1.209564
  C 5.212124 0.194262 -2.307168
  O 6.573774 0.193781 -2.298516
  H 1.197717 -0.004071 1.207631
  H 0.337261 -0.811081 -0.135446
  H 0.337250 0.948907 -0.036138
  H 3.832217 0.872391 1.382393
  H 3.832169 -0.894538 1.282682
  H 2.751963 -0.640691 -3.082429
  H 2.752017 1.111199 -2.983641
  H 0.408702 1.076550 -2.194725
  H 0.408664 -0.695092 -2.294653
  H 0.920468 1.208293 -4.624402
  H -0.567954 0.308499 -4.331442
  H 0.920424 -0.552605 -4.723731
  H 4.989322 0.079679 -0.276328
  H 4.849229 0.251219 -3.316631
  H 6.894621 0.142315 -1.386267
 26
 39.892440
  C 0.828999 0.051354 0.225151
  C 2.337585 0.060496 0.063256
  C 3.207587 -0.010828 1.327499
  H 2.633141 -0.062720 2.247027
  C 2.988220 0.127627 -1.126415
  C 2.362108 0.205733 -2.510508
  C 0.842655 0.217160 -2.712829
  C 0.519830 0.301283 -4.203806
  C 4.433734 0.131866 -1.201473
  C 5.180810 0.194120 -2.304582
  O 6.561287 0.194520 -2.311497
  H 1.303739 -0.000710 1.147887
  H 0.321072 -0.827462 -0.123330
  H 0.321045 0.963815 -0.022266
  H 3.844960 0.872121 1.408083
  H 3.844882 -0.897139 1.308246
  H 2.755466 -0.640952 -3.074716
  H 2.755581 1.110649 -2.976011
  H 0.396456 1.078233 -2.210352
  H 0.396384 -0.695004 -2.310341
  H 0.935861 1.208680 -4.636797
  H -0.556723 0.310151 -4.360740
  H 0.935784 -0.551606 -4.736052
  H 4.980915 0.079321 -0.270166
  H 4.806302 0.250698 -3.307137
  H 6.899775 0.142702 -1.393170
 26
 52.216954
  C 0.797780 0.051854 0.216499
  C 2.333214 0.060315 0.066795
  C 3.216366 -0.010867 1.328479
  H 2.648389 -0.063367 2.258853
  C 2.979242 0.127572 -1.125117
  C 2.350753 0.205502 -2.506271
  C 0.839585 0.217058 -2.710687
  C 0.522100 0.301043 -4.199095
  C 4.444517 0.131687 -1.197923
  C 5.197676 0.193767 -2.298292
  O 6.550597 0.193614 -2.295525
  H 1.384593 0.001616 1.106957
  H 0.305003 -0.831918 -0.131098
  H 0.304993 0.969095 -0.029472
  H 3.851277 0.868581 1.400951
  H 3.851283 -0.892871 1.301563
  H 2.744503 -0.640373 -3.071959
  H 2.744519 1.109615 -2.973219
  H 0.395144 1.073412 -2.212507
  H 0.395095 -0.689923 -2.311974
  H 0.939522 1.208875 -4.630943
  H -0.553267 0.310056 -4.358480
  H 0.939502 -0.552485 -4.730344
  H 4.987865 0.079094 -0.265692
  H 4.829404 0.250755 -3.308598
  H 6.878230 0.142004 -1.380591
 26
 63.900446
  C 0.778557 0.050991 0.232337
  C 2.329682 0.059813 0.076124
  C 3.219717 -0.010682 1.325387
  H 2.646940 -0.063951 2.269569
  C 2.967813 0.127344 -1.120697
  C 2.343979 0.204843 -2.494430
  C 0.844155 0.216906 -2.707776
  C 0.540028 0.301188 -4.201277
  C 4.439073 0.131595 -1.195939
  C 5.190589 0.193509 -2.293726
  O 6.557988 0.193337 -2.290460
  H 1.441300 0.004527 1.055849
  H 0.293471 -0.836065 -0.110036
  H 0.293479 0.970891 -0.008064
  H 3.852000 0.866781 1.389457
  H 3.852136 -0.889925 1.290337
  H 2.741499 -0.645364 -3.061054
  H 2.741364 1.113131 -2.961642
  H 0.397607 1.071591 -2.213455
  H 0.397620 -0.687924 -2.312783
  H 0.962358 1.210963 -4.630629
  H -0.534904 0.310727 -4.369938
  H 0.962426 -0.554651 -4.730380
  H 4.978276 0.079504 -0.272331
  H 4.811415 0.251863 -3.328697
  H 6.880145 0.142772 -1.393620
 26
 73.214968
  C 0.763607 0.051838 0.217269
  C 2.339451 0.059561 0.080204
  C 3.222639 -0.011427 1.337952
  H 2.643731 -0.063652 2.263592
  C 2.984206 0.127004 -1.115160
  C 2.358908 0.204832 -2.494648
  C 0.842004 0.216743 -2.705323
  C 0.529500 0.301252 -4.202728
  C 4.443116 0.131288 -1.191012
  C 5.191303 0.193669 -2.297120
  O 6.542296 0.194058 -2.302783
  H 1.484625 0.007079 1.010372
  H 0.295924 -0.842557 -0.133140
  H 0.295927 0.980004 -0.030301
  H 3.856280 0.871043 1.407588
  H 3.856281 -0.896143 1.307854
  H 2.757218 -0.647941 -3.062465
  H 2.757172 1.115985 -2.962859
  H 0.394044 1.076070 -2.205469
  H 0.394027 -0.693371 -2.305329
  H 0.948569 1.209508 -4.633704
  H -0.546201 0.310502 -4.366305
  H 0.948583 -0.552799 -4.733201
  H 4.992585 0.078485 -0.254414
  H 4.815872 0.250435 -3.304164
  H 6.876448 0.142886 -1.394688
 26
 81.264438
  C 0.742682 0.051387 0.225651
  C 2.337329 0.059365 0.083879
  C 3.236427 -0.012047 1.348796
  H 2.659134 -0.064385 2.276272
  C 2.975975 0.126824 -1.111731
  C 2.351940 0.204651 -2.491180
  C 0.845248 0.217006 -2.709813
  C 0.544573 0.301423 -4.205654
  C 4.438275 0.131320 -1.191604
  C 5.182419 0.193704 -2.297961
  O 6.540732 0.194359 -2.307741
  H 1.519443 0.008917 0.978013
  H 0.287501 -0.846191 -0.130391
  H 0.287523 0.983344 -0.027140
  H 3.869963 0.871862 1.416285
  H 3.869980 -0.898006 1.316388
  H 2.749588 -0.641426 -3.053106
  H 2.749536 1.108442 -2.954291
  H 0.395300 1.073672 -2.214400
  H 0.395262 -0.689982 -2.313904
  H 0.967393 1.210447 -4.634163
  H -0.528478 0.311059 -4.376065
  H 0.967433 -0.553739 -4.733788
  H 4.989436 0.078786 -0.259837
  H 4.802242 0.250682 -3.308768
  H 6.876762 0.143520 -1.405189
 26
 88.370951
  C 0.733138 0.050442 0.242415
  C 2.344768 0.059035 0.089754
  C 3.242632 -0.011642 1.341557
  H 2.666089 -0.063658 2.263332
  C 2.978742 0.126705 -1.109610
  C 2.358294 0.204185 -2.482844
  C 0.842255 0.216879 -2.707154
  C 0.544392 0.301860 -4.213209
  C 4.442121 0.131122 -1.188434
  C 5.188465 0.193521 -2.295090
  O 6.535358 0.194048 -2.301576
  H 1.555801 0.010569 0.948761
  H 0.290926 -0.850502 -0.128635
  H 0.290937 0.987448 -0.024916
  H 3.871434 0.869004 1.405557
  H 3.871472 -0.893998 1.306034
  H 2.760896 -0.645506 -3.045892
  H 2.760834 1.111583 -2.946635
  H 0.387310 1.081353 -2.208888
  H 0.387240 -0.698169 -2.309270
  H 0.969753 1.213835 -4.642016
  H -0.531906 0.311735 -4.387508
  H 0.969803 -0.556294 -4.742011
  H 4.992340 0.078476 -0.254750
  H 4.808805 0.250929 -3.313205
  H 6.871241 0.142957 -1.394138
 26
 94.417290
  C 0.708937 0.050998 0.232484
  C 2.354277 0.059213 0.086047
  C 3.254011 -0.012338 1.353779
  H 2.668615 -0.064174 2.272875
  C 2.985112 0.126829 -1.112991
  C 2.356450 0.204705 -2.492997
  C 0.842636 0.216932 -2.707415
  C 0.537257 0.301153 -4.200394
  C 4.445580 0.131033 -1.189689
  C 5.194411 0.193261 -2.293179
  O 6.551130 0.193924 -2.295827
  H 1.573768 0.012726 0.910674
  H 0.293500 -0.846118 -0.165579
  H 0.293539 0.987218 -0.062184
  H 3.887836 0.875719 1.422691
  H 3.887845 -0.902609 1.322351
  H 2.755178 -0.643404 -3.057098
  H 2.755287 1.110660 -2.958111
  H 0.395403 1.071555 -2.211256
  H 0.395197 -0.688038 -2.310448
  H 0.958346 1.210771 -4.630506
  H -0.536098 0.310647 -4.366696
  H 0.958278 -0.554596 -4.730180
  H 4.998498 0.077900 -0.247048
  H 4.819722 0.250558 -3.307650
  H 6.884432 0.143107 -1.391283
 26
 99.835783
  C 0.683973 0.049565 0.258028
  C 2.367381 0.058541 0.096991
  C 3.267929 -0.012915 1.363856
  H 2.683342 -0.064462 2.278902
  C 2.983719 0.126310 -1.106009
  C 2.356569 0.204200 -2.485794
  C 0.850061 0.217096 -2.709753
  C 0.555399 0.301727 -4.210309
  C 4.441849 0.130801 -1.190188
  C 5.184545 0.193388 -2.299707
  O 6.538047 0.195152 -2.312107
  H 1.593697 0.013901 0.890166
  H 0.293560 -0.846073 -0.172514
  H 0.293677 0.987915 -0.069203
  H 3.898865 0.870960 1.433470
  H 3.898787 -0.899086 1.333691
  H 2.754026 -0.638749 -3.044799
  H 2.754345 1.104481 -2.946553
  H 0.396921 1.076553 -2.214058
  H 0.396591 -0.692477 -2.313765
  H 0.981679 1.214137 -4.638741
  H -0.520587 0.311798 -4.385433
  H 0.981392 -0.556969 -4.738607
  H 4.992021 0.078685 -0.264375
  H 4.802606 0.250749 -3.312245
  H 6.878400 0.144597 -1.409401
 26
 104.483199
  C 0.643692 0.048270 0.280889
  C 2.388125 0.058353 0.100151
  C 3.280649 -0.012720 1.360749
  H 2.687865 -0.064028 2.271694
  C 2.984572 0.126341 -1.106939
  C 2.353679 0.204172 -2.485671
  C 0.845330 0.217252 -2.712882
  C 0.555694 0.301517 -4.206649
  C 4.456139 0.131035 -1.194498
  C 5.197045 0.193430 -2.300407
  O 6.557523 0.195229 -2.313468
  H 1.602593 0.015820 0.856157
  H 0.289608 -0.840395 -0.193007
  H 0.289721 0.984542 -0.090235
  H 3.912410 0.872013 1.433896
  H 3.912309 -0.900105 1.334030
  H 2.753867 -0.645324 -3.048388
  H 2.754223 1.111452 -2.949421
  H 0.391313 1.075293 -2.219716
  H 0.390987 -0.690621 -2.319259
  H 0.980093 1.207273 -4.630901
  H -0.516561 0.311686 -4.383676
  H 0.979725 -0.550886 -4.729965
  H 5.012551 0.078352 -0.257963
  H 4.816818 0.250473 -3.306918
  H 6.899284 0.144754 -1.412623
 26
 109.182772
  C 0.587223 0.047049 0.304495
  C 2.415884 0.058204 0.100744
  C 3.307849 -0.012316 1.353072
  H 2.712242 -0.063539 2.265418
  C 2.994817 0.126227 -1.109808
  C 2.360328 0.204160 -2.489003
  C 0.847265 0.217507 -2.715805
  C 0.556499 0.301871 -4.211385
  C 4.468116 0.130634 -1.197394
  C 5.212233 0.193014 -2.301213
  O 6.570727 0.195762 -2.309289
  H 1.614951 0.017329 0.830474
  H 0.247894 -0.838849 -0.199121
  H 0.248194 0.983902 -0.096784
  H 3.937459 0.868264 1.425880
  H 3.937210 -0.895667 1.326706
  H 2.762092 -0.649116 -3.052459
  H 2.762777 1.114939 -2.953116
  H 0.390395 1.079323 -2.221923
  H 0.389746 -0.693926 -2.321840
  H 0.979942 1.205011 -4.634730
  H -0.513775 0.312197 -4.387916
  H 0.979225 -0.548265 -4.733435
  H 5.016125 0.078523 -0.267440
  H 4.836634 0.250509 -3.307159
  H 6.910378 0.145341 -1.404601
