 22
 0.000000
  C 1.008963 0.118443 0.347143
  C 2.481486 0.130328 0.375998
  C 3.238529 0.603636 1.552867
  C 2.432485 1.085403 2.751874
  H 3.102663 1.403721 3.543524
  C 3.129756 -0.329356 -0.767934
  C 4.517306 -0.402274 -0.950151
  C 5.146007 -0.855772 -2.081092
  C 4.545371 -1.351942 -3.318968
  H 3.463488 -1.371266 -3.368045
  H 6.227553 -0.863094 -2.099245
  H 0.543923 0.483670 1.255793
  H 0.654118 -0.896859 0.161644
  H 0.653736 0.722683 -0.489422
  H 3.898899 1.416348 1.229448
  H 3.899303 -0.206467 1.881860
  H 1.799263 0.291070 3.140950
  H 1.798952 1.927838 2.483118
  H 2.496713 -0.656207 -1.581151
  H 5.146030 -0.074665 -0.133945
  H 4.932439 -2.358106 -3.501458
  H 4.932990 -0.750821 -4.145936
 22
 -0.359683
  C 1.007722 0.094497 0.345126
  C 2.478038 0.096995 0.375619
  C 3.231091 0.604134 1.544157
  C 2.423396 1.106225 2.730650
  H 3.101368 1.451278 3.505954
  C 3.138431 -0.368062 -0.759055
  C 4.526983 -0.416366 -0.938870
  C 5.156325 -0.860484 -2.078214
  C 4.540643 -1.341647 -3.310408
  H 3.456969 -1.333557 -3.303253
  H 6.238561 -0.856110 -2.076424
  H 0.565007 0.319362 1.307967
  H 0.631577 -0.860599 -0.024804
  H 0.665950 0.848671 -0.367625
  H 3.887398 1.411380 1.201239
  H 3.908705 -0.187931 1.885311
  H 1.810451 0.318200 3.158196
  H 1.784073 1.940114 2.453083
  H 2.513286 -0.720386 -1.568093
  H 5.158782 -0.084765 -0.128809
  H 4.900057 -2.351210 -3.517803
  H 4.905215 -0.743716 -4.147889
 22
 -0.552677
  C 1.008087 0.080439 0.355581
  C 2.479694 0.080473 0.377859
  C 3.229767 0.617701 1.534331
  C 2.415484 1.118999 2.717070
  H 3.086398 1.495116 3.481345
  C 3.139652 -0.387226 -0.755182
  C 4.529088 -0.429742 -0.936500
  C 5.159255 -0.865888 -2.076878
  C 4.544778 -1.347138 -3.310795
  H 3.461535 -1.345883 -3.300571
  H 6.241289 -0.855896 -2.074449
  H 0.585641 0.149174 1.352770
  H 0.619000 -0.790329 -0.164515
  H 0.665961 0.960490 -0.197753
  H 3.868103 1.436668 1.175683
  H 3.924481 -0.153924 1.881512
  H 1.826701 0.322220 3.162577
  H 1.751163 1.928979 2.428595
  H 2.517160 -0.744344 -1.559599
  H 5.161574 -0.100145 -0.122745
  H 4.910082 -2.354943 -3.522625
  H 4.903219 -0.743832 -4.147468
 22
 -0.716241
  C 1.007610 0.066068 0.368903
  C 2.478051 0.086159 0.368628
  C 3.224335 0.644673 1.514033
  C 2.407417 1.133450 2.699548
  H 3.076347 1.536476 3.457524
  C 3.140734 -0.385892 -0.761102
  C 4.531031 -0.451000 -0.929464
  C 5.166207 -0.885500 -2.067588
  C 4.557670 -1.348349 -3.312944
  H 3.474103 -1.331637 -3.313515
  H 6.249340 -0.885250 -2.055968
  H 0.633322 -0.029474 1.386068
  H 0.608308 -0.722332 -0.265097
  H 0.632559 1.024092 0.000737
  H 3.836873 1.473985 1.143549
  H 3.941250 -0.108107 1.861610
  H 1.845274 0.322135 3.158784
  H 1.713686 1.919056 2.409773
  H 2.517443 -0.736256 -1.572709
  H 5.159923 -0.141297 -0.106035
  H 4.909042 -2.360772 -3.528486
  H 4.933225 -0.742896 -4.142049
 22
 -0.966112
  C 1.008361 0.039397 0.396846
  C 2.475579 0.087754 0.360296
  C 3.219782 0.674574 1.494386
  C 2.398024 1.161097 2.676499
  H 3.055934 1.599757 3.419533
  C 3.141522 -0.385294 -0.768259
  C 4.530575 -0.492237 -0.918234
  C 5.171958 -0.923777 -2.054021
  C 4.573258 -1.330316 -3.322666
  H 3.489238 -1.283604 -3.345419
  H 6.249834 -0.966301 -2.019318
  H 0.674331 -0.225139 1.404916
  H 0.596043 -0.658939 -0.330156
  H 0.608899 1.036681 0.209962
  H 3.805403 1.515791 1.111348
  H 3.960610 -0.051243 1.844788
  H 1.862701 0.344375 3.153347
  H 1.682020 1.917586 2.377185
  H 2.519250 -0.704064 -1.591481
  H 5.159072 -0.211673 -0.079879
  H 4.903630 -2.344024 -3.563615
  H 4.987356 -0.716648 -4.125486
 22
 -0.731408
  C 1.015679 0.015571 0.412492
  C 2.478385 0.093358 0.350890
  C 3.213876 0.707924 1.476996
  C 2.383000 1.187322 2.655497
  H 3.034593 1.650893 3.396573
  C 3.147827 -0.362382 -0.782464
  C 4.535983 -0.524166 -0.908993
  C 5.179612 -0.948643 -2.043118
  C 4.582597 -1.329234 -3.324703
  H 3.500247 -1.274044 -3.350042
  H 6.263188 -1.003823 -2.004112
  H 0.760730 -0.421593 1.387251
  H 0.591489 -0.580339 -0.384388
  H 0.571370 1.016705 0.429873
  H 3.788232 1.551900 1.078017
  H 3.965340 -0.002421 1.835630
  H 1.868519 0.364203 3.138037
  H 1.644235 1.925832 2.351264
  H 2.531913 -0.635593 -1.624215
  H 5.155432 -0.305330 -0.045789
  H 4.905582 -2.339909 -3.586035
  H 4.997715 -0.695508 -4.110732
 22
 0.345458
  C 1.004381 0.029773 0.419906
  C 2.459369 0.130160 0.316370
  C 3.202096 0.734379 1.444963
  C 2.386653 1.184714 2.644641
  H 3.035097 1.681888 3.363728
  C 3.143739 -0.343740 -0.800241
  C 4.526267 -0.545218 -0.895785
  C 5.184539 -0.951142 -2.030518
  C 4.603346 -1.341283 -3.311155
  H 3.517996 -1.318596 -3.339723
  H 6.265098 -1.000617 -1.981872
  H 0.861383 -0.547740 1.342550
  H 0.540425 -0.473521 -0.419394
  H 0.545509 0.999020 0.618379
  H 3.765515 1.590247 1.055555
  H 3.964521 0.017800 1.779457
  H 1.912041 0.339928 3.142890
  H 1.607224 1.892875 2.357410
  H 2.537049 -0.622200 -1.647606
  H 5.135055 -0.327253 -0.030048
  H 4.958270 -2.341210 -3.577326
  H 5.003502 -0.692409 -4.095595
 22
 4.352353
  C 0.999062 0.008529 0.424656
  C 2.444025 0.140208 0.299601
  C 3.185994 0.823032 1.391099
  C 2.386818 1.204668 2.627815
  H 3.037962 1.697399 3.336513
  C 3.143169 -0.357015 -0.798953
  C 4.514194 -0.630524 -0.863124
  C 5.181599 -1.035372 -1.990820
  C 4.625333 -1.285193 -3.325919
  H 3.559974 -1.091605 -3.410752
  H 6.242340 -1.188091 -1.906416
  H 1.031543 -0.570021 1.369037
  H 0.537205 -0.593190 -0.347637
  H 0.446667 0.890924 0.718378
  H 3.622913 1.743091 0.965990
  H 4.032472 0.204393 1.680122
  H 1.971742 0.327209 3.118559
  H 1.573502 1.889645 2.394800
  H 2.551100 -0.570475 -1.682556
  H 5.109093 -0.489498 0.030958
  H 4.838333 -2.320221 -3.616168
  H 5.161662 -0.676314 -4.052779
 22
 11.390505
  C 0.984438 -0.008867 0.457190
  C 2.413744 0.103750 0.288410
  C 3.156709 0.848231 1.350057
  C 2.380654 1.226093 2.603827
  H 3.062511 1.677026 3.319863
  C 3.138665 -0.367406 -0.808551
  C 4.513275 -0.646418 -0.852621
  C 5.181308 -1.061997 -1.979605
  C 4.648662 -1.263853 -3.327430
  H 3.582844 -1.048618 -3.429365
  H 6.245192 -1.241028 -1.879836
  H 1.191014 -0.564656 1.399255
  H 0.497686 -0.620778 -0.283786
  H 0.423480 0.846414 0.833541
  H 3.560878 1.755334 0.889516
  H 4.008144 0.221227 1.651424
  H 1.940522 0.354103 3.072280
  H 1.583691 1.948855 2.402429
  H 2.578133 -0.505504 -1.717876
  H 5.092046 -0.552775 0.047027
  H 4.843208 -2.295067 -3.635958
  H 5.208948 -0.643625 -4.031573
 22
 23.543756
  C 0.952465 0.013466 0.474530
  C 2.349163 0.124281 0.249588
  C 3.131982 0.868491 1.305949
  C 2.386474 1.214329 2.592034
  H 3.073024 1.688537 3.286703
  C 3.129969 -0.313492 -0.836414
  C 4.486226 -0.623788 -0.856524
  C 5.185412 -1.054928 -1.955795
  C 4.673067 -1.289932 -3.310836
  H 3.607383 -1.142213 -3.416334
  H 6.243051 -1.236199 -1.827518
  H 1.401695 -0.541654 1.383617
  H 0.436787 -0.535974 -0.312996
  H 0.391516 0.773220 0.969621
  H 3.518142 1.781293 0.869749
  H 3.990154 0.239993 1.577280
  H 1.977430 0.314844 3.095888
  H 1.589605 1.911944 2.427048
  H 2.587602 -0.452191 -1.776292
  H 5.047403 -0.597699 0.064181
  H 4.908820 -2.301701 -3.623799
  H 5.211582 -0.627125 -4.005662
 22
 37.363697
  C 0.909708 0.059437 0.399137
  C 2.319880 0.070717 0.253611
  C 3.152591 0.778520 1.332346
  C 2.401385 1.241067 2.575775
  H 3.099837 1.763432 3.228797
  C 3.092100 -0.417670 -0.813231
  C 4.469786 -0.637528 -0.839753
  C 5.182991 -1.010517 -1.946787
  C 4.687533 -1.216999 -3.317111
  H 3.622859 -1.043143 -3.427359
  H 6.239000 -1.211705 -1.808551
  H 1.535452 -0.417858 1.360214
  H 0.375552 -0.541406 -0.318064
  H 0.328637 0.762967 0.976973
  H 3.646713 1.638922 0.874788
  H 3.938678 0.084254 1.638026
  H 1.974715 0.411765 3.149683
  H 1.625172 1.957341 2.336246
  H 2.532708 -0.710382 -1.694982
  H 5.041857 -0.498800 0.068475
  H 4.925099 -2.229671 -3.636742
  H 5.228830 -0.555616 -4.002141
 22
 48.805275
  C 0.900392 0.158537 0.323647
  C 2.309753 0.113388 0.250043
  C 3.154726 0.763242 1.371834
  C 2.388455 1.149513 2.634663
  H 3.087548 1.582205 3.364951
  C 3.121214 -0.409956 -0.816551
  C 4.501414 -0.526730 -0.877165
  C 5.201686 -0.946351 -1.977851
  C 4.662055 -1.330462 -3.292398
  H 3.589353 -1.237752 -3.362428
  H 6.291398 -0.958745 -1.901271
  H 1.636770 -0.287343 1.340237
  H 0.365395 -0.461597 -0.380145
  H 0.328975 0.877299 0.880583
  H 3.639597 1.656399 0.973499
  H 3.943045 0.048944 1.628704
  H 1.906284 0.292171 3.110846
  H 1.636079 1.915300 2.431961
  H 2.562474 -0.733990 -1.686684
  H 5.096075 -0.239860 -0.017499
  H 4.952724 -2.340903 -3.526873
  H 5.123498 -0.708854 -4.062040
 22
 60.727862
  C 0.907338 0.138745 0.225257
  C 2.304196 0.058954 0.268270
  C 3.152968 0.770465 1.421565
  C 2.396372 1.166078 2.699304
  H 3.094953 1.636303 3.385417
  C 3.093584 -0.394547 -0.822281
  C 4.481345 -0.526662 -0.876682
  C 5.186457 -0.938408 -1.975103
  C 4.660695 -1.321317 -3.299221
  H 3.577501 -1.253273 -3.379585
  H 6.257624 -1.027808 -1.872975
  H 1.901487 -0.201721 1.355000
  H 0.410369 -0.461974 -0.521621
  H 0.294038 0.803410 0.805613
  H 3.603971 1.659149 0.978872
  H 3.950903 0.081485 1.684198
  H 1.966868 0.316316 3.226616
  H 1.608242 1.885361 2.490145
  H 2.534821 -0.662384 -1.708691
  H 5.067949 -0.299759 0.000120
  H 4.973715 -2.341651 -3.530602
  H 5.112779 -0.690162 -4.062262
 22
 71.137673
  C 0.926492 0.125125 0.075482
  C 2.308026 0.111251 0.284115
  C 3.163256 0.754248 1.520996
  C 2.417180 1.141856 2.820253
  H 3.147398 1.527098 3.529699
  C 3.089679 -0.378595 -0.807724
  C 4.487006 -0.447443 -0.904672
  C 5.177051 -0.889766 -2.003088
  C 4.630437 -1.374278 -3.289821
  H 3.550872 -1.356841 -3.347457
  H 6.246290 -0.907524 -1.947321
  H 1.972738 0.032042 1.350965
  H 0.536757 -0.596293 -0.635365
  H 0.242080 0.848654 0.463313
  H 3.678551 1.619502 1.097109
  H 3.910160 -0.011266 1.775087
  H 1.916995 0.303622 3.317930
  H 1.685062 1.916129 2.628445
  H 2.523408 -0.727111 -1.663379
  H 5.080205 -0.153429 -0.075560
  H 4.983795 -2.398590 -3.468760
  H 5.035889 -0.773875 -4.100330
