 13
 0.000000
  C 0.969656 0.142719 0.402067
  C 2.416559 0.110113 0.337958
  H 2.999097 0.450774 1.183084
  C 3.071485 -0.341182 -0.792058
  C 4.475950 -0.384809 -0.908469
  C 5.086897 -0.833976 -2.039127
  H 4.509551 -1.172951 -2.887172
  H 6.161124 -0.866361 -2.126336
  H 0.581173 0.529243 1.336424
  H 0.558442 -0.855121 0.211111
  H 0.583763 0.716746 -0.448357
  H 2.464311 -0.672605 -1.624865
  H 5.070736 -0.048849 -0.068765
 13
 1.653939
  C 0.993960 0.124970 0.376151
  C 2.435289 0.114914 0.400349
  H 2.991516 0.468884 1.263415
  C 3.082580 -0.314066 -0.741095
  C 4.475833 -0.394783 -0.895889
  C 5.048992 -0.819407 -2.055161
  H 4.447611 -1.111325 -2.901636
  H 6.118420 -0.876971 -2.165257
  H 0.520510 0.602629 1.233776
  H 0.602037 -0.899839 0.261818
  H 0.708528 0.569609 -0.584636
  H 2.412009 -0.582719 -1.559936
  H 5.097733 -0.108277 -0.058820
 13
 5.344863
  C 1.008193 0.115694 0.347896
  C 2.447416 0.110252 0.457903
  H 2.973956 0.467520 1.329670
  C 3.093180 -0.298805 -0.694596
  C 4.480985 -0.405444 -0.885259
  C 5.016567 -0.800059 -2.072304
  H 4.386795 -1.043703 -2.916444
  H 6.083994 -0.882054 -2.209289
  H 0.471910 0.675149 1.100374
  H 0.624399 -0.918970 0.345942
  H 0.836471 0.411335 -0.703210
  H 2.367810 -0.497254 -1.490275
  H 5.127386 -0.162974 -0.052309
 13
 11.110597
  C 1.023222 0.109556 0.316962
  C 2.455335 0.104363 0.501610
  H 2.951065 0.442686 1.386050
  C 3.104615 -0.284082 -0.657898
  C 4.484881 -0.407273 -0.880057
  C 4.988970 -0.784962 -2.088452
  H 4.340215 -0.994118 -2.920582
  H 6.043958 -0.884872 -2.248476
  H 0.440976 0.735125 0.977000
  H 0.627515 -0.922702 0.410668
  H 0.960790 0.280680 -0.786425
  H 2.326525 -0.437474 -1.424076
  H 5.152486 -0.190979 -0.055326
 13
 19.289413
  C 1.033746 0.101555 0.286608
  C 2.455715 0.090266 0.533101
  H 2.933195 0.410889 1.455232
  C 3.114871 -0.281728 -0.632856
  C 4.490185 -0.404802 -0.881269
  C 4.969639 -0.772815 -2.102187
  H 4.306068 -0.962295 -2.925048
  H 6.017008 -0.883311 -2.280116
  H 0.429455 0.779487 0.870382
  H 0.618135 -0.894224 0.443338
  H 1.067623 0.175039 -0.835172
  H 2.272185 -0.406687 -1.366106
  H 5.171101 -0.193271 -0.070575
 13
 28.670456
  C 1.040453 0.101162 0.273040
  C 2.456857 0.071893 0.552950
  H 2.916566 0.363266 1.481519
  C 3.119158 -0.285133 -0.611349
  C 4.490037 -0.396311 -0.884929
  C 4.952180 -0.761777 -2.111149
  H 4.277683 -0.942924 -2.929282
  H 6.004426 -0.880381 -2.302351
  H 0.432968 0.831384 0.795697
  H 0.585495 -0.877746 0.467252
  H 1.160135 0.092640 -0.876919
  H 2.230125 -0.391321 -1.319566
  H 5.188266 -0.174093 -0.080013
 13
 38.397704
  C 1.045422 0.106879 0.267018
  C 2.456424 0.040347 0.571411
  H 2.904230 0.286429 1.518131
  C 3.122894 -0.301120 -0.587393
  C 4.490787 -0.378674 -0.893206
  C 4.944044 -0.751563 -2.117467
  H 4.264929 -0.942068 -2.934779
  H 5.992275 -0.869665 -2.313223
  H 0.462663 0.895398 0.732521
  H 0.538655 -0.839070 0.469883
  H 1.229616 0.015181 -0.906613
  H 2.185931 -0.400179 -1.287969
  H 5.191068 -0.118725 -0.110293
 13
 48.230240
  C 1.046101 0.107600 0.269722
  C 2.453168 0.025076 0.583036
  H 2.886245 0.252338 1.540254
  C 3.127928 -0.307336 -0.563493
  C 4.490339 -0.373227 -0.903800
  C 4.935083 -0.752046 -2.125093
  H 4.263620 -0.951731 -2.928152
  H 5.990898 -0.858850 -2.331013
  H 0.480108 0.921886 0.708708
  H 0.510431 -0.821475 0.450168
  H 1.281577 -0.017547 -0.936014
  H 2.144469 -0.397540 -1.272978
  H 5.191071 -0.088882 -0.139497
 13
 56.363060
  C 1.047060 0.112534 0.278084
  C 2.452966 0.003352 0.591392
  H 2.874444 0.199846 1.562033
  C 3.140517 -0.311884 -0.537199
  C 4.493238 -0.360280 -0.910724
  C 4.928828 -0.752579 -2.125326
  H 4.244497 -0.984483 -2.934695
  H 5.971214 -0.844413 -2.335707
  H 0.501019 0.950695 0.698361
  H 0.484409 -0.804941 0.426505
  H 1.313923 -0.037837 -0.985037
  H 2.114816 -0.399606 -1.287914
  H 5.205218 -0.033393 -0.155022
 13
 62.693550
  C 1.039579 0.114066 0.296658
  C 2.450085 -0.011698 0.596070
  H 2.862485 0.156592 1.576223
  C 3.154561 -0.308493 -0.516550
  C 4.497156 -0.347354 -0.919372
  C 4.924003 -0.756919 -2.129227
  H 4.239853 -1.025478 -2.919229
  H 5.969988 -0.837820 -2.350610
  H 0.509264 0.964216 0.710923
  H 0.462939 -0.797807 0.403240
  H 1.326477 -0.037441 -1.040866
  H 2.089606 -0.385790 -1.323435
  H 5.210934 0.012217 -0.184665
 13
 69.018493
  C 1.030515 0.108469 0.323573
  C 2.447466 -0.015125 0.590711
  H 2.857265 0.134285 1.577320
  C 3.171782 -0.291942 -0.500760
  C 4.502878 -0.332778 -0.926921
  C 4.919036 -0.758202 -2.132143
  H 4.227622 -1.072328 -2.903406
  H 5.962879 -0.843190 -2.359543
  H 0.505694 0.957568 0.744777
  H 0.452085 -0.807617 0.376724
  H 1.328330 -0.028123 -1.112897
  H 2.064237 -0.352356 -1.383691
  H 5.226208 0.041623 -0.202669
 13
 74.629416
  C 1.023521 0.105213 0.359372
  C 2.436496 -0.014277 0.581519
  H 2.845303 0.125179 1.573089
  C 3.190701 -0.285297 -0.479543
  C 4.508806 -0.339029 -0.927419
  C 4.913550 -0.785651 -2.127521
  H 4.217949 -1.100506 -2.885888
  H 5.956968 -0.821231 -2.384934
  H 0.504631 0.948643 0.794496
  H 0.442837 -0.808427 0.349899
  H 1.327106 -0.022320 -1.206902
  H 2.042261 -0.334755 -1.463181
  H 5.235681 0.066311 -0.228749
 13
 78.828690
  C 1.014407 0.095606 0.406761
  C 2.424831 -0.011710 0.565768
  H 2.842051 0.116543 1.560608
  C 3.210032 -0.267655 -0.466457
  C 4.511799 -0.323382 -0.937314
  C 4.907965 -0.797988 -2.129368
  H 4.206769 -1.165703 -2.860309
  H 5.948894 -0.825803 -2.399080
  H 0.498295 0.913153 0.890234
  H 0.434359 -0.811819 0.303986
  H 1.318431 0.010549 -1.331852
  H 2.021200 -0.299378 -1.580931
  H 5.245723 0.109180 -0.259540
 13
 81.067503
  C 1.005952 0.087175 0.448944
  C 2.406602 -0.018520 0.547978
  H 2.833897 0.112442 1.544178
  C 3.227519 -0.261361 -0.453426
  C 4.510410 -0.315621 -0.949589
  C 4.899428 -0.818066 -2.134041
  H 4.194043 -1.213590 -2.842829
  H 5.936688 -0.820057 -2.424911
  H 0.500031 0.868419 0.995841
  H 0.418857 -0.799271 0.254292
  H 1.319374 0.044108 -1.475684
  H 2.010502 -0.281706 -1.711355
  H 5.246793 0.157723 -0.303329
