 19
 0.000000
  C -3.241199 -1.761492 -0.524635
  C -1.754496 -1.555726 -0.608526
  C -1.215458 -1.668111 -2.022373
  C -1.189175 -0.199993 -0.062133
  C -2.193335 0.827507 0.340673
  O -0.018675 -0.019471 -0.010013
  H -3.480044 -2.768809 -0.869437
  H -3.787751 -1.075314 -1.170337
  H -3.604082 -1.679112 0.496883
  H -1.259709 -2.293669 0.039492
  H -1.632366 -0.908398 -2.684009
  H -1.497534 -2.638909 -2.431025
  H -0.130697 -1.572968 -2.035339
  H -3.218849 0.485737 0.287510
  H -2.049719 1.686289 -0.316781
  H -1.950825 1.132133 1.359231
  O 2.718752 -0.029307 -0.020124
  H 3.419081 0.455574 -0.475384
  H 3.159100 -0.717463 0.495218
 19
 -0.723238
  C -3.157228 -1.839408 -0.412527
  C -1.703880 -1.539774 -0.620713
  C -1.278159 -1.526925 -2.072396
  C -1.176322 -0.135370 -0.077356
  C -2.235607 0.858872 0.219973
  O -0.010507 0.039695 0.021603
  H -3.316170 -2.885727 -0.682124
  H -3.806406 -1.253580 -1.057868
  H -3.460130 -1.749386 0.628105
  H -1.084893 -2.221834 -0.024983
  H -1.837809 -0.800138 -2.659684
  H -1.504062 -2.506417 -2.499027
  H -0.212891 -1.336525 -2.179263
  H -3.244901 0.495912 0.095898
  H -2.053366 1.712663 -0.435108
  H -2.072500 1.200215 1.242757
  O 2.704849 -0.195156 0.073707
  H 3.413389 0.255173 -0.396839
  H 3.112365 -0.869526 0.626487
 19
 -1.292939
  C -3.058925 -1.899559 -0.300873
  C -1.649765 -1.512629 -0.635781
  C -1.364808 -1.412957 -2.116370
  C -1.173728 -0.084340 -0.102195
  C -2.269679 0.892835 0.090462
  O -0.017711 0.108207 0.058173
  H -3.154455 -2.968977 -0.500683
  H -3.797279 -1.395812 -0.918263
  H -3.292822 -1.776800 0.753781
  H -0.938258 -2.173414 -0.131014
  H -2.030244 -0.713004 -2.618344
  H -1.553971 -2.395039 -2.556333
  H -0.330534 -1.146285 -2.316349
  H -3.257208 0.507893 -0.110085
  H -2.050090 1.741879 -0.559553
  H -2.201500 1.250164 1.118613
  O 2.694536 -0.338580 0.196676
  H 3.420487 0.077850 -0.278465
  H 3.078711 -0.997606 0.783411
 19
 -1.804276
  C -2.914806 -1.950759 -0.193588
  C -1.573187 -1.479998 -0.672360
  C -1.448383 -1.321312 -2.169485
  C -1.160689 -0.027191 -0.141450
  C -2.290601 0.921154 -0.044529
  O -0.021276 0.185903 0.087225
  H -2.953597 -3.030818 -0.357463
  H -3.742690 -1.508575 -0.740364
  H -3.052756 -1.812973 0.875892
  H -0.771531 -2.102908 -0.264624
  H -2.213622 -0.668367 -2.583158
  H -1.594914 -2.308267 -2.614998
  H -0.463243 -0.972949 -2.464044
  H -3.250701 0.507909 -0.322212
  H -2.043069 1.774108 -0.679118
  H -2.318605 1.283302 0.983583
  O 2.604481 -0.495269 0.321691
  H 3.354423 -0.122259 -0.151119
  H 2.953081 -1.154472 0.930372
 19
 -1.835356
  C -2.777943 -1.961507 -0.116832
  C -1.499681 -1.443606 -0.710122
  C -1.476427 -1.285259 -2.208432
  C -1.154043 0.032507 -0.182338
  C -2.311848 0.944923 -0.124423
  O -0.033477 0.262209 0.113730
  H -2.792941 -3.042776 -0.267873
  H -3.665823 -1.543143 -0.576932
  H -2.808823 -1.809145 0.959669
  H -0.644758 -2.019981 -0.346105
  H -2.290669 -0.663195 -2.575837
  H -1.607655 -2.281091 -2.642274
  H -0.521545 -0.902621 -2.564095
  H -3.248851 0.507139 -0.439960
  H -2.069089 1.807935 -0.749283
  H -2.386329 1.304369 0.902340
  O 2.448434 -0.602440 0.404258
  H 3.220978 -0.266254 -0.055477
  H 2.753700 -1.304483 0.990444
 19
 -3.073639
  C -2.562343 -1.975475 -0.016988
  C -1.392924 -1.345415 -0.715790
  C -1.509460 -1.210440 -2.211794
  C -1.179156 0.159039 -0.196345
  C -2.397287 0.990099 -0.249587
  O -0.094555 0.466114 0.156602
  H -2.474175 -3.054979 -0.155877
  H -3.520157 -1.658505 -0.418768
  H -2.541837 -1.818247 1.060492
  H -0.450376 -1.822974 -0.429923
  H -2.428072 -0.715309 -2.523540
  H -1.524657 -2.224956 -2.625522
  H -0.645617 -0.706281 -2.646516
  H -3.269242 0.483683 -0.632510
  H -2.165193 1.860140 -0.861392
  H -2.587454 1.350577 0.762360
  O 2.293010 -0.872287 0.456442
  H 3.093750 -0.574050 0.015481
  H 2.550216 -1.582658 1.053520
 19
 -3.774871
  C -2.326360 -1.967724 0.065680
  C -1.283981 -1.262952 -0.759236
  C -1.548216 -1.183171 -2.237705
  C -1.183469 0.243305 -0.212687
  C -2.428977 1.018483 -0.345691
  O -0.147820 0.585763 0.243273
  H -2.178258 -3.041478 -0.079821
  H -3.339864 -1.717687 -0.233495
  H -2.204863 -1.798675 1.134219
  H -0.276612 -1.643602 -0.556424
  H -2.532017 -0.794995 -2.480461
  H -1.493416 -2.204370 -2.626953
  H -0.783834 -0.612385 -2.757681
  H -3.245467 0.480565 -0.804907
  H -2.193186 1.914450 -0.922336
  H -2.712777 1.345552 0.656181
  O 2.048140 -1.040810 0.531745
  H 2.879172 -0.751591 0.144013
  H 2.245605 -1.813387 1.069573
 19
 -4.447958
  C -2.082698 -1.961449 0.105934
  C -1.177842 -1.165509 -0.796376
  C -1.554642 -1.156576 -2.249322
  C -1.195633 0.318245 -0.197570
  C -2.477187 1.028651 -0.399104
  O -0.237345 0.700443 0.376833
  H -1.853955 -3.016892 -0.057428
  H -3.134166 -1.806109 -0.116900
  H -1.897810 -1.776968 1.160144
  H -0.122662 -1.433410 -0.656378
  H -2.597308 -0.906819 -2.430660
  H -1.401197 -2.172622 -2.626559
  H -0.906155 -0.506388 -2.834474
  H -3.242366 0.443173 -0.891735
  H -2.260596 1.929469 -0.980523
  H -2.821352 1.352766 0.584274
  O 1.788054 -1.203443 0.566380
  H 2.629201 -0.886371 0.244747
  H 1.956734 -2.050746 0.995784
 19
 -3.585868
  C -1.982111 -1.983695 0.138704
  C -1.170901 -1.174113 -0.848381
  C -1.648835 -1.200691 -2.265630
  C -1.196770 0.272544 -0.179238
  C -2.404151 1.074761 -0.477953
  O -0.292217 0.597383 0.509827
  H -1.743936 -3.036962 -0.022496
  H -3.051659 -1.846267 0.010102
  H -1.688855 -1.754749 1.160741
  H -0.103777 -1.418171 -0.767525
  H -2.699816 -0.953468 -2.381375
  H -1.537131 -2.227141 -2.624644
  H -1.039456 -0.572452 -2.909485
  H -3.160882 0.547979 -1.043712
  H -2.074531 1.957540 -1.028099
  H -2.806967 1.418569 0.476141
  O 1.706523 -1.158825 0.634520
  H 2.539340 -0.784302 0.332513
  H 1.901555 -2.048092 0.949660
