 14
 0.000000
  C -1.518488 -0.834599 0.890263
  C -0.879752 0.256815 0.035709
  H -1.208799 0.135549 -1.006897
  C -1.173092 1.619493 0.541052
  H -2.119341 1.921518 0.945684
  O -0.404122 2.678930 0.111829
  H -1.151141 -1.809978 0.580696
  H -2.600789 -0.826621 0.784624
  H -1.270109 -0.688870 1.938039
  H 0.208280 0.120470 0.045122
  H 0.343433 2.326955 -0.385367
  O 2.403693 -0.315927 -0.341598
  H 2.832205 0.252760 0.301945
  H 3.038606 -0.499049 -1.036247
 14
 -0.475771
  C -1.540887 -0.831602 0.897428
  C -0.877096 0.232718 0.028507
  H -1.229048 0.107623 -1.010409
  C -1.146984 1.602916 0.523820
  H -2.102378 1.906748 0.908497
  O -0.381014 2.659774 0.089924
  H -1.236631 -1.824214 0.575162
  H -2.623878 -0.761528 0.827963
  H -1.254999 -0.701923 1.938195
  H 0.207563 0.079020 0.013813
  H 0.395566 2.302988 -0.358260
  O 2.410053 -0.223077 -0.384068
  H 2.844594 0.253792 0.327736
  H 3.075382 -0.425051 -1.045011
 14
 -0.698113
  C -1.564595 -0.836710 0.901846
  C -0.884934 0.209292 0.023014
  H -1.250325 0.093212 -1.011665
  C -1.112210 1.587252 0.519817
  H -2.052789 1.918597 0.917920
  O -0.321473 2.619555 0.072469
  H -1.291748 -1.837452 0.576318
  H -2.646263 -0.738038 0.847355
  H -1.261207 -0.714226 1.938523
  H 0.196302 0.034324 0.005799
  H 0.442688 2.236756 -0.375575
  O 2.394273 -0.139086 -0.401595
  H 2.806592 0.288230 0.352668
  H 3.083369 -0.337714 -1.038384
 14
 -0.932452
  C -1.582880 -0.841686 0.904567
  C -0.894779 0.188852 0.014098
  H -1.282429 0.084527 -1.013718
  C -1.073404 1.571215 0.517229
  H -1.988719 1.924186 0.953256
  O -0.268777 2.582872 0.048614
  H -1.341920 -1.848483 0.572573
  H -2.662665 -0.715921 0.871695
  H -1.256551 -0.728651 1.935376
  H 0.180719 -0.015965 -0.024019
  H 0.475553 2.178974 -0.414660
  O 2.374554 -0.064376 -0.404490
  H 2.756277 0.320493 0.387906
  H 3.092482 -0.253562 -1.011757
 14
 -0.898530
  C -1.579173 -0.847524 0.899733
  C -0.895224 0.179744 0.003437
  H -1.306737 0.092846 -1.017434
  C -1.032570 1.559033 0.523132
  H -1.882563 1.901727 1.080487
  O -0.267181 2.576369 0.003611
  H -1.353428 -1.855198 0.559996
  H -2.658190 -0.711548 0.884902
  H -1.235531 -0.742132 1.925761
  H 0.173116 -0.054037 -0.074661
  H 0.426748 2.178362 -0.536313
  O 2.340199 -0.039209 -0.367538
  H 2.681372 0.320284 0.454773
  H 3.090883 -0.221565 -0.936490
 14
 -0.172820
  C -1.540634 -0.853653 0.872235
  C -0.865007 0.191355 -0.007936
  H -1.277134 0.125753 -1.029852
  C -1.008298 1.559470 0.535471
  H -1.682360 1.829463 1.322405
  O -0.389251 2.631268 -0.065031
  H -1.288880 -1.854721 0.531372
  H -2.622038 -0.740675 0.842990
  H -1.213822 -0.746885 1.903432
  H 0.202059 -0.050356 -0.108542
  H 0.183281 2.291615 -0.762583
  O 2.308822 -0.071091 -0.311692
  H 2.617648 0.279381 0.527087
  H 3.083632 -0.256047 -0.847161
 14
 0.240420
  C -1.539075 -0.857225 0.816638
  C -0.832234 0.207691 -0.013118
  H -1.206963 0.168790 -1.044954
  C -1.027530 1.562362 0.544325
  H -1.469190 1.767404 1.499422
  O -0.529765 2.677378 -0.090909
  H -1.257778 -1.851839 0.475478
  H -2.619254 -0.754868 0.734895
  H -1.265977 -0.763213 1.862076
  H 0.239974 -0.033381 -0.073651
  H -0.090179 2.392023 -0.898718
  O 2.348453 -0.113693 -0.249817
  H 2.637272 0.227076 0.599654
  H 3.135154 -0.300039 -0.765584
 14
 0.763153
  C -1.591917 -0.823012 0.773264
  C -0.807033 0.231895 -0.004851
  H -1.114186 0.220249 -1.062375
  C -0.966869 1.585401 0.566093
  H -1.236993 1.772677 1.591054
  O -0.516416 2.702681 -0.097148
  H -1.312829 -1.820689 0.443767
  H -2.662915 -0.697825 0.626569
  H -1.382311 -0.739708 1.835258
  H 0.255792 -0.066340 -0.016902
  H -0.196824 2.432841 -0.960931
  O 2.328223 -0.200207 -0.216465
  H 2.619975 0.120011 0.641726
  H 3.113697 -0.402047 -0.725861
 14
 7.473136
  C -1.434951 -0.831656 0.757042
  C -0.724521 0.298976 0.018787
  H -0.886311 0.231797 -1.069312
  C -0.921938 1.650612 0.552337
  H -1.142403 1.866233 1.577739
  O -0.686425 2.779403 -0.203360
  H -1.057182 -1.797489 0.438862
  H -2.503328 -0.818759 0.506478
  H -1.372342 -0.699717 1.832077
  H 0.358694 0.047559 0.029389
  H -0.472450 2.503937 -1.102184
  O 2.080138 -0.334108 -0.106266
  H 2.410902 -0.039245 0.747092
  H 2.896393 -0.558267 -0.585932
 14
 28.583121
  C -1.369610 -0.873605 0.823846
  C -0.815953 0.245728 -0.039278
  H -0.921868 0.134276 -1.151688
  C -0.938847 1.589491 0.470666
  H -1.158295 1.791549 1.505390
  O -0.577318 2.732679 -0.236518
  H -0.839463 -1.820296 0.603464
  H -2.438262 -0.991232 0.752721
  H -1.120680 -0.647843 1.855503
  H 0.350158 0.055525 -0.060850
  H -0.285693 2.480095 -1.132290
  O 1.813900 -0.148062 -0.134626
  H 2.147529 0.140739 0.720213
  H 2.722997 -0.407352 -0.581310
 14
 53.265664
  C -1.421022 -0.842072 0.744292
  C -0.822680 0.330391 0.004779
  H -0.899940 0.266892 -1.079270
  C -0.904844 1.588689 0.557618
  H -1.127415 1.756106 1.599451
  O -0.565826 2.735423 -0.078562
  H -0.991407 -1.776094 0.391043
  H -2.498741 -0.885584 0.584337
  H -1.240288 -0.756710 1.812899
  H 0.573762 0.009568 -0.021787
  H -0.324822 2.543205 -0.994065
  O 1.717289 -0.189755 -0.102089
  H 2.080994 0.045683 0.756882
  H 3.026530 -0.565939 -0.777383
 14
 46.409643
  C -1.456003 -0.816494 0.804712
  C -0.919600 0.359348 0.030672
  H -0.978265 0.255219 -1.046979
  C -0.963353 1.600856 0.534948
  H -1.140376 1.796995 1.578527
  O -0.702612 2.736533 -0.141719
  H -0.982228 -1.738655 0.478033
  H -2.530601 -0.914187 0.643014
  H -1.276759 -0.695071 1.874413
  H 0.741935 -0.000664 -0.011617
  H -0.508340 2.536079 -1.069366
  O 1.722513 -0.177515 -0.082599
  H 2.105961 0.012032 0.776037
  H 3.298071 -0.685585 -0.907145
 14
 42.109580
  C -1.552219 -0.827105 0.817275
  C -1.027545 0.342171 0.041109
  H -0.949724 0.201151 -1.031177
  C -0.966722 1.574758 0.541377
  H -1.159903 1.788271 1.583818
  O -0.568197 2.683354 -0.119286
  H -1.060261 -1.746146 0.504896
  H -2.621720 -0.946924 0.641942
  H -1.395500 -0.688793 1.884429
  H 0.838920 -0.063038 0.060871
  H -0.366764 2.468189 -1.039637
  O 1.804165 -0.111326 -0.068158
  H 2.205620 0.157408 0.761188
  H 3.464213 -0.596417 -1.178198
 14
 41.568744
  C -1.571530 -0.830370 0.817554
  C -1.063114 0.343135 0.039578
  H -0.973633 0.201967 -1.031478
  C -0.953972 1.561201 0.552057
  H -1.124183 1.767372 1.599368
  O -0.555091 2.670623 -0.106470
  H -1.071442 -1.744478 0.503215
  H -2.640372 -0.962503 0.646801
  H -1.412140 -0.689232 1.883800
  H 0.852182 -0.060025 -0.000637
  H -0.378683 2.462379 -1.033353
  O 1.821664 -0.086048 -0.071630
  H 2.179246 0.187346 0.775740
  H 3.535433 -0.585813 -1.174094
 14
 40.366284
  C -1.684372 -0.833485 0.831786
  C -1.160515 0.328266 0.049566
  H -1.020569 0.167367 -1.012443
  C -0.955968 1.531741 0.570879
  H -1.125807 1.749227 1.616465
  O -0.503058 2.623025 -0.087001
  H -1.165184 -1.749276 0.554518
  H -2.745325 -0.981316 0.625553
  H -1.565797 -0.668000 1.899819
  H 0.962746 -0.081497 0.011393
  H -0.323196 2.402535 -1.009672
  O 1.920756 0.018606 -0.073551
  H 2.255851 0.302818 0.778350
  H 3.754801 -0.574457 -1.355213
