 13
 0.000000
  C 0.984589 0.139909 0.414996
  C 2.426397 0.102973 0.312743
  H 3.025645 0.444215 1.149271
  C 3.082528 -0.352514 -0.819928
  C 4.488239 -0.389771 -0.921100
  C 5.118384 -0.840745 -2.041588
  H 4.558034 -1.187719 -2.896905
  H 6.193715 -0.866518 -2.112282
  H 0.633591 0.512400 1.371359
  H 0.558804 -0.850222 0.214183
  H 0.563158 0.741288 -0.400792
  H 2.501462 -0.696603 -1.668004
  H 5.072676 -0.047410 -0.076714
 13
 3.854896
  C 0.991520 0.089135 0.450689
  C 2.400965 0.108078 0.316426
  H 3.019010 0.481392 1.118284
  C 3.054599 -0.350732 -0.817054
  C 4.466156 -0.372407 -0.925444
  C 5.098600 -0.839753 -2.035519
  H 4.545021 -1.217344 -2.877626
  H 6.170422 -0.845015 -2.109508
  H 0.599868 0.474060 1.388284
  H 0.495584 -0.847624 0.153025
  H 0.833300 0.750139 -0.393015
  H 2.472509 -0.715626 -1.651413
  H 5.051587 -0.003481 -0.089778
 13
 10.043012
  C 0.975781 0.042027 0.481506
  C 2.380823 0.122056 0.310841
  H 3.009139 0.537226 1.093494
  C 3.044727 -0.357285 -0.823920
  C 4.448989 -0.354443 -0.935562
  C 5.089439 -0.846957 -2.029475
  H 4.540137 -1.270723 -2.861842
  H 6.170090 -0.829720 -2.106767
  H 0.568923 0.382776 1.413833
  H 0.443441 -0.805480 0.069029
  H 1.035227 0.808267 -0.317157
  H 2.470233 -0.763585 -1.652134
  H 5.027463 0.052010 -0.119007
 13
 14.686456
  C 0.963702 0.008294 0.501485
  C 2.361951 0.124459 0.289379
  H 2.977280 0.576790 1.058938
  C 3.037263 -0.371744 -0.841424
  C 4.438828 -0.340819 -0.954234
  C 5.094349 -0.853949 -2.028237
  H 4.562107 -1.315872 -2.842100
  H 6.167823 -0.814525 -2.103383
  H 0.554882 0.315932 1.450802
  H 0.393095 -0.761367 -0.003729
  H 1.191212 0.868096 -0.212474
  H 2.470679 -0.814528 -1.651232
  H 5.008485 0.105755 -0.148053
 13
 17.896124
  C 0.958390 -0.021505 0.513297
  C 2.346298 0.139938 0.271655
  H 2.955591 0.614342 1.036497
  C 3.031907 -0.379452 -0.851065
  C 4.430660 -0.329561 -0.966644
  C 5.097091 -0.859540 -2.025501
  H 4.573544 -1.350263 -2.829202
  H 6.170267 -0.806697 -2.098715
  H 0.540128 0.255407 1.472622
  H 0.371083 -0.720709 -0.066514
  H 1.309883 0.906789 -0.125618
  H 2.471597 -0.849410 -1.640293
  H 4.991260 0.145083 -0.175989
 13
 20.784224
  C 0.955354 -0.046455 0.524079
  C 2.334741 0.156342 0.261712
  H 2.947672 0.626930 1.028806
  C 3.028656 -0.380951 -0.859057
  C 4.422033 -0.317949 -0.975339
  C 5.096794 -0.862441 -2.022821
  H 4.584091 -1.370386 -2.810654
  H 6.174725 -0.800478 -2.095348
  H 0.530156 0.222140 1.482076
  H 0.357942 -0.694314 -0.101952
  H 1.405156 0.929771 -0.076477
  H 2.466264 -0.874530 -1.642872
  H 4.978133 0.179081 -0.194102
 13
 23.653995
  C 0.955476 -0.067179 0.531270
  C 2.327720 0.172287 0.257202
  H 2.940756 0.635310 1.026268
  C 3.026411 -0.371977 -0.862726
  C 4.416937 -0.309329 -0.977318
  C 5.094549 -0.861628 -2.018580
  H 4.582351 -1.378662 -2.804669
  H 6.170724 -0.800445 -2.088768
  H 0.525275 0.209392 1.480391
  H 0.358607 -0.697332 -0.108515
  H 1.484106 0.936181 -0.069552
  H 2.464493 -0.872631 -1.647557
  H 4.976696 0.197196 -0.192825
 13
 26.035188
  C 0.955315 -0.089207 0.536515
  C 2.323765 0.190870 0.258616
  H 2.939683 0.645292 1.034258
  C 3.028273 -0.368131 -0.859047
  C 4.420794 -0.302832 -0.976034
  C 5.097864 -0.856637 -2.015786
  H 4.577693 -1.384724 -2.814526
  H 6.159782 -0.799360 -2.082938
  H 0.508311 0.200727 1.479978
  H 0.364119 -0.706400 -0.123778
  H 1.550671 0.949167 -0.077392
  H 2.474502 -0.865838 -1.623300
  H 4.973363 0.201690 -0.205080
 13
 27.592631
  C 0.960655 -0.115928 0.547484
  C 2.319910 0.212243 0.259171
  H 2.940606 0.641928 1.042980
  C 3.029320 -0.363762 -0.860310
  C 4.416332 -0.295637 -0.978022
  C 5.093536 -0.857769 -2.014731
  H 4.578773 -1.385778 -2.800771
  H 6.163988 -0.802036 -2.082685
  H 0.502625 0.182569 1.477663
  H 0.372705 -0.709769 -0.133079
  H 1.612188 0.984578 -0.090345
  H 2.464186 -0.873469 -1.625781
  H 4.973106 0.220126 -0.206317
 13
 28.436938
  C 0.963688 -0.140817 0.558568
  C 2.313180 0.230065 0.258535
  H 2.936318 0.641829 1.051407
  C 3.030250 -0.359032 -0.861031
  C 4.414935 -0.291304 -0.977297
  C 5.092715 -0.860331 -2.010389
  H 4.578209 -1.383609 -2.798138
  H 6.163838 -0.800961 -2.079828
  H 0.499398 0.164843 1.482592
  H 0.382073 -0.726612 -0.133254
  H 1.680729 1.030831 -0.122835
  H 2.462854 -0.871641 -1.623962
  H 4.971623 0.227804 -0.207702
 13
 28.684117
  C 0.971559 -0.168142 0.566125
  C 2.308153 0.248609 0.252854
  H 2.928183 0.639270 1.060917
  C 3.030081 -0.350533 -0.860321
  C 4.413390 -0.278706 -0.978814
  C 5.089933 -0.852978 -2.010030
  H 4.573540 -1.387485 -2.791335
  H 6.161289 -0.811446 -2.071177
  H 0.500346 0.142302 1.486198
  H 0.392045 -0.750280 -0.130047
  H 1.758077 1.082684 -0.158508
  H 2.465661 -0.864877 -1.621033
  H 4.969506 0.239818 -0.211741
 13
 28.427243
  C 0.978641 -0.190306 0.571200
  C 2.302661 0.266074 0.247042
  H 2.921139 0.627470 1.070998
  C 3.029910 -0.339276 -0.864521
  C 4.411286 -0.262122 -0.984474
  C 5.088662 -0.852154 -2.007100
  H 4.573966 -1.404345 -2.775227
  H 6.161374 -0.814569 -2.066258
  H 0.504210 0.116478 1.489471
  H 0.400751 -0.773079 -0.125391
  H 1.841215 1.136493 -0.184429
  H 2.465147 -0.861010 -1.622301
  H 4.967071 0.261878 -0.220676
 13
 28.151319
  C 0.980654 -0.202782 0.576048
  C 2.296573 0.279575 0.242244
  H 2.913817 0.612178 1.080634
  C 3.032077 -0.337106 -0.868454
  C 4.413061 -0.251151 -0.989478
  C 5.092853 -0.856580 -2.001565
  H 4.579567 -1.416150 -2.766159
  H 6.164330 -0.806206 -2.067554
  H 0.505845 0.102811 1.493214
  H 0.407853 -0.795928 -0.115300
  H 1.926248 1.180192 -0.203079
  H 2.468456 -0.869137 -1.621496
  H 4.967008 0.287237 -0.232415
