 25
 0.000000
  C 0.963685 0.146040 0.415283
  C 2.437401 0.140092 0.399844
  C 3.234017 0.604872 1.556147
  C 2.467615 1.095636 2.778001
  H 3.162154 1.405726 3.549726
  C 3.042255 -0.327621 -0.764362
  C 4.425076 -0.413511 -0.978939
  C 5.090604 -0.861092 -2.094933
  C 4.625381 -1.380810 -3.390726
  C 3.143551 -1.508055 -3.708310
  H 3.020272 -1.909039 -4.708261
  H 6.171416 -0.843902 -2.052333
  H 0.530176 0.516476 1.337189
  H 0.591182 -0.864874 0.241483
  H 0.590780 0.755384 -0.409684
  H 3.893631 1.410702 1.214592
  H 3.893910 -0.213017 1.867029
  H 1.836530 0.307894 3.184334
  H 1.836349 1.945450 2.526530
  H 2.377704 -0.643861 -1.551174
  H 5.053623 -0.085074 -0.161007
  H 5.098994 -2.364259 -3.512048
  H 5.099229 -0.753949 -4.158024
  H 2.654343 -0.537200 -3.674170
  H 2.654229 -2.186279 -3.012882
 25
 4.416483
  C 0.965140 0.132801 0.382064
  C 2.404899 0.134388 0.385605
  C 3.210574 0.597688 1.538350
  C 2.467111 1.093269 2.772141
  H 3.185969 1.396810 3.527922
  C 3.032985 -0.328437 -0.766290
  C 4.406942 -0.408559 -0.966626
  C 5.072816 -0.853732 -2.076748
  C 4.622138 -1.374416 -3.374923
  C 3.143887 -1.505913 -3.702707
  H 3.036437 -1.908722 -4.707356
  H 6.154489 -0.826979 -2.010496
  H 0.757918 0.517122 1.338336
  H 0.546220 -0.868249 0.236607
  H 0.545922 0.754591 -0.415666
  H 3.871672 1.397852 1.187671
  H 3.871845 -0.222525 1.838725
  H 1.842068 0.313054 3.201899
  H 1.842043 1.953965 2.542846
  H 2.381171 -0.647276 -1.559452
  H 5.036654 -0.080952 -0.150817
  H 5.105233 -2.353854 -3.494853
  H 5.105299 -0.749362 -4.138420
  H 2.648252 -0.538788 -3.678393
  H 2.648408 -2.188460 -3.016999
 25
 13.408382
  C 0.917874 0.134134 0.379711
  C 2.368357 0.132501 0.378604
  C 3.177306 0.595575 1.535533
  C 2.459611 1.095911 2.782980
  H 3.204483 1.390030 3.519947
  C 3.026426 -0.329653 -0.772732
  C 4.407973 -0.407213 -0.967803
  C 5.079395 -0.854401 -2.083076
  C 4.635865 -1.377396 -3.382565
  C 3.161721 -1.516372 -3.721982
  H 3.067610 -1.921049 -4.728336
  H 6.161734 -0.822899 -2.008358
  H 0.947786 0.527104 1.360213
  H 0.473263 -0.851548 0.280441
  H 0.474788 0.779093 -0.373101
  H 3.841961 1.389781 1.178876
  H 3.840709 -0.226089 1.826311
  H 1.842927 0.322660 3.238081
  H 1.844888 1.970891 2.578218
  H 2.383740 -0.651053 -1.573587
  H 5.039453 -0.079572 -0.153383
  H 5.127909 -2.352855 -3.502700
  H 5.125323 -0.755177 -4.144974
  H 2.660086 -0.552698 -3.707517
  H 2.663019 -2.203459 -3.043910
 25
 26.575629
  C 0.882164 0.131559 0.371754
  C 2.350213 0.131021 0.374161
  C 3.170724 0.596064 1.537288
  C 2.467433 1.098539 2.790842
  H 3.221851 1.388556 3.518590
  C 3.035465 -0.331006 -0.777200
  C 4.388700 -0.403003 -0.958624
  C 5.070638 -0.849012 -2.070721
  C 4.639582 -1.377638 -3.382953
  C 3.170990 -1.524088 -3.739526
  H 3.090955 -1.929142 -4.745731
  H 6.152693 -0.813218 -1.985980
  H 1.096407 0.516309 1.332980
  H 0.422384 -0.841351 0.303003
  H 0.424295 0.789028 -0.349864
  H 3.834237 1.387417 1.177154
  H 3.832722 -0.226275 1.823190
  H 1.852030 0.329209 3.254999
  H 1.854292 1.977241 2.595822
  H 2.405923 -0.653925 -1.582137
  H 5.010212 -0.074656 -0.142951
  H 5.137924 -2.351236 -3.498473
  H 5.134865 -0.753774 -4.141245
  H 2.664802 -0.563972 -3.731715
  H 2.668214 -2.213026 -3.067961
 25
 40.031720
  C 0.863116 0.127376 0.358993
  C 2.342798 0.131360 0.374540
  C 3.166147 0.590446 1.524769
  C 2.464394 1.090036 2.771420
  H 3.216127 1.379654 3.499723
  C 3.025755 -0.327936 -0.770534
  C 4.410274 -0.402977 -0.960566
  C 5.083727 -0.850614 -2.076742
  C 4.642732 -1.371267 -3.367103
  C 3.171689 -1.510758 -3.703687
  H 3.076870 -1.915671 -4.707689
  H 6.162420 -0.818727 -2.003029
  H 1.210762 0.498216 1.287808
  H 0.403312 -0.848232 0.309746
  H 0.405904 0.801562 -0.349491
  H 3.827429 1.379137 1.164207
  H 3.825296 -0.230858 1.808111
  H 1.847329 0.319914 3.233132
  H 1.850396 1.968323 2.574307
  H 2.389661 -0.652233 -1.579339
  H 5.043172 -0.073352 -0.142835
  H 5.134850 -2.344186 -3.487066
  H 5.130848 -0.751084 -4.128889
  H 2.669860 -0.548089 -3.689330
  H 2.674189 -2.196704 -3.024615
 25
 53.347735
  C 0.837042 0.122578 0.343924
  C 2.335785 0.129996 0.374816
  C 3.174618 0.592349 1.532920
  C 2.474731 1.096533 2.785916
  H 3.231440 1.387398 3.519278
  C 3.013040 -0.328884 -0.766557
  C 4.403071 -0.401093 -0.956769
  C 5.078012 -0.845920 -2.068003
  C 4.645010 -1.369415 -3.363868
  C 3.175532 -1.515415 -3.713586
  H 3.090547 -1.922870 -4.723278
  H 6.161065 -0.811219 -1.989027
  H 1.288164 0.478029 1.240757
  H 0.387892 -0.853481 0.304261
  H 0.389048 0.808573 -0.351576
  H 3.836547 1.379522 1.167869
  H 3.832005 -0.232397 1.813235
  H 1.855371 0.327159 3.247481
  H 1.860935 1.975595 2.587780
  H 2.378079 -0.654242 -1.575303
  H 5.033434 -0.070145 -0.139689
  H 5.141591 -2.341219 -3.479384
  H 5.136198 -0.746388 -4.122085
  H 2.669456 -0.555568 -3.703554
  H 2.675150 -2.202800 -3.038999
 25
 63.646258
  C 0.844614 0.123224 0.330920
  C 2.366493 0.119315 0.387145
  C 3.197288 0.586996 1.546413
  C 2.456169 1.104078 2.775196
  H 3.178243 1.395329 3.524641
  C 3.016479 -0.350331 -0.747868
  C 4.415885 -0.399966 -0.954579
  C 5.079370 -0.836009 -2.064018
  C 4.639913 -1.366695 -3.370350
  C 3.166987 -1.515929 -3.712656
  H 3.078555 -1.919618 -4.714445
  H 6.158230 -0.800197 -1.991023
  H 1.375518 0.453741 1.207922
  H 0.413618 -0.861652 0.270848
  H 0.381920 0.852154 -0.309962
  H 3.873569 1.373426 1.194342
  H 3.842893 -0.243557 1.844765
  H 1.822427 0.339930 3.218016
  H 1.853763 1.979738 2.552653
  H 2.381742 -0.686090 -1.550197
  H 5.044862 -0.056710 -0.145236
  H 5.138281 -2.339514 -3.489731
  H 5.124121 -0.739037 -4.132936
  H 2.657430 -0.557123 -3.699659
  H 2.672738 -2.206343 -3.035983
 25
 69.184692
  C 0.843635 0.113093 0.281444
  C 2.396513 0.101716 0.388031
  C 3.227829 0.581886 1.566486
  C 2.450380 1.118787 2.774772
  H 3.160020 1.415109 3.556959
  C 3.019640 -0.381253 -0.737137
  C 4.420835 -0.399267 -0.958067
  C 5.077525 -0.829362 -2.073885
  C 4.633431 -1.360343 -3.369262
  C 3.160579 -1.508895 -3.689281
  H 3.058258 -1.914620 -4.698116
  H 6.161123 -0.792942 -2.010633
  H 1.432557 0.417924 1.163427
  H 0.443476 -0.878121 0.164363
  H 0.354082 0.887646 -0.275546
  H 3.916545 1.362170 1.230751
  H 3.851800 -0.255891 1.880693
  H 1.793902 0.359110 3.204438
  H 1.860473 2.001534 2.524463
  H 2.385703 -0.736901 -1.536386
  H 5.046953 -0.034721 -0.152000
  H 5.126916 -2.328183 -3.491768
  H 5.101187 -0.730310 -4.131784
  H 2.651755 -0.551312 -3.667719
  H 2.678784 -2.201049 -3.006960
 25
 73.122023
  C 0.852457 0.115838 0.255289
  C 2.420390 0.093118 0.413398
  C 3.241674 0.580758 1.584695
  C 2.444590 1.125900 2.764758
  H 3.135284 1.429858 3.555426
  C 3.023766 -0.400428 -0.714413
  C 4.430939 -0.403717 -0.951178
  C 5.075231 -0.818723 -2.063584
  C 4.628755 -1.353373 -3.373850
  C 3.145961 -1.518738 -3.691164
  H 3.043791 -1.917993 -4.706424
  H 6.165233 -0.768946 -2.006689
  H 1.479400 0.372546 1.144658
  H 0.460907 -0.868193 0.083869
  H 0.368321 0.941870 -0.228548
  H 3.931868 1.358376 1.249211
  H 3.856660 -0.258172 1.915262
  H 1.781041 0.372754 3.186618
  H 1.861984 2.002443 2.489962
  H 2.395498 -0.764559 -1.499499
  H 5.056391 -0.030600 -0.149656
  H 5.133320 -2.320620 -3.503505
  H 5.084375 -0.706430 -4.136792
  H 2.626691 -0.569348 -3.659213
  H 2.676364 -2.222661 -3.016008
 25
 75.800889
  C 0.848720 0.111659 0.214664
  C 2.433629 0.078272 0.418541
  C 3.257581 0.582616 1.593813
  C 2.445485 1.140404 2.772462
  H 3.126236 1.454223 3.563373
  C 3.029875 -0.417455 -0.706579
  C 4.434982 -0.411266 -0.945799
  C 5.078281 -0.817366 -2.067442
  C 4.625705 -1.346832 -3.375737
  C 3.145896 -1.517749 -3.674880
  H 3.035142 -1.908305 -4.687148
  H 6.159986 -0.759059 -2.020007
  H 1.510949 0.314371 1.119934
  H 0.456521 -0.861714 -0.013239
  H 0.371920 0.979872 -0.194325
  H 3.943005 1.358503 1.250944
  H 3.869750 -0.250929 1.934264
  H 1.783776 0.393610 3.194416
  H 1.864945 2.005979 2.485869
  H 2.395435 -0.796394 -1.501882
  H 5.058420 -0.037972 -0.145450
  H 5.131917 -2.307726 -3.514573
  H 5.067130 -0.692910 -4.136665
  H 2.621633 -0.569867 -3.630076
  H 2.688024 -2.231152 -2.998835
 25
 77.985851
  C 0.841508 0.118560 0.188412
  C 2.439780 0.070831 0.428647
  C 3.265117 0.582701 1.600935
  C 2.451155 1.142235 2.765907
  H 3.128847 1.462979 3.557792
  C 3.033579 -0.428238 -0.697364
  C 4.437727 -0.408412 -0.944571
  C 5.077601 -0.810089 -2.066433
  C 4.622361 -1.343051 -3.375185
  C 3.144934 -1.521326 -3.668016
  H 3.032738 -1.910001 -4.678077
  H 6.161928 -0.748282 -2.022255
  H 1.536240 0.262323 1.108240
  H 0.449151 -0.837151 -0.092142
  H 0.372540 1.022415 -0.144080
  H 3.951873 1.363544 1.251089
  H 3.879449 -0.254560 1.949828
  H 1.782926 0.389810 3.192227
  H 1.863713 2.012683 2.465939
  H 2.404920 -0.819409 -1.480112
  H 5.065046 -0.019031 -0.148836
  H 5.132289 -2.302185 -3.515075
  H 5.056918 -0.685958 -4.137454
  H 2.617353 -0.578748 -3.620268
  H 2.694382 -2.237302 -2.993285
 25
 79.681042
  C 0.844971 0.131132 0.160736
  C 2.449740 0.064987 0.428013
  C 3.271415 0.583587 1.605194
  C 2.445920 1.143636 2.767688
  H 3.113394 1.468466 3.559316
  C 3.045508 -0.433848 -0.697260
  C 4.447684 -0.401693 -0.946146
  C 5.087134 -0.803760 -2.071164
  C 4.622881 -1.342477 -3.376093
  C 3.140088 -1.523385 -3.651022
  H 3.015790 -1.914425 -4.659288
  H 6.170564 -0.741946 -2.031944
  H 1.566894 0.210375 1.089803
  H 0.449211 -0.807698 -0.170897
  H 0.378212 1.059715 -0.092283
  H 3.953139 1.364729 1.256866
  H 3.884113 -0.249633 1.956660
  H 1.781747 0.394495 3.189693
  H 1.860317 2.003977 2.463501
  H 2.417242 -0.839534 -1.480403
  H 5.071255 0.000996 -0.159929
  H 5.132764 -2.302172 -3.517497
  H 5.048549 -0.686402 -4.144856
  H 2.610657 -0.578468 -3.598153
  H 2.697423 -2.240174 -2.967471
 25
 81.100673
  C 0.836820 0.165505 0.162534
  C 2.444208 0.062420 0.439497
  C 3.275370 0.578704 1.612048
  C 2.456157 1.146485 2.772272
  H 3.126342 1.469042 3.560151
  C 3.031191 -0.441090 -0.690120
  C 4.428684 -0.395754 -0.950795
  C 5.072762 -0.792648 -2.072595
  C 4.628433 -1.338558 -3.377087
  C 3.155770 -1.551435 -3.674761
  H 3.056556 -1.939879 -4.686992
  H 6.159950 -0.716568 -2.029049
  H 1.588296 0.174351 1.094522
  H 0.425478 -0.751929 -0.210359
  H 0.379641 1.113072 -0.013550
  H 3.963708 1.358191 1.257911
  H 3.885068 -0.262398 1.964597
  H 1.785904 0.401803 3.198712
  H 1.874582 2.011574 2.464177
  H 2.394347 -0.853341 -1.465940
  H 5.053358 0.021483 -0.168332
  H 5.159721 -2.287802 -3.512204
  H 5.050183 -0.673221 -4.140225
  H 2.605610 -0.620751 -3.626371
  H 2.720452 -2.281713 -3.003468
 25
 82.029523
  C 0.840789 0.180758 0.135560
  C 2.456130 0.051708 0.439258
  C 3.280687 0.581560 1.617241
  C 2.452604 1.147800 2.766195
  H 3.116230 1.480503 3.558319
  C 3.047138 -0.447920 -0.691639
  C 4.443123 -0.401844 -0.949997
  C 5.085607 -0.793375 -2.078193
  C 4.631679 -1.334412 -3.377110
  C 3.146947 -1.553839 -3.654274
  H 3.032647 -1.935870 -4.666787
  H 6.173538 -0.707156 -2.044686
  H 1.612631 0.120421 1.084810
  H 0.424788 -0.711260 -0.280600
  H 0.384002 1.140637 0.030145
  H 3.963073 1.362384 1.264629
  H 3.891926 -0.252071 1.975663
  H 1.784960 0.401210 3.192369
  H 1.867199 2.006330 2.448973
  H 2.413411 -0.857272 -1.467506
  H 5.066408 0.010810 -0.168567
  H 5.169299 -2.283960 -3.523344
  H 5.041152 -0.660947 -4.145743
  H 2.591904 -0.625310 -3.591538
  H 2.725664 -2.290374 -2.980129
