 17
 0.000000
  C 1.014866 0.093662 0.303282
  C 2.481665 0.093674 0.339712
  H 3.007828 0.463820 1.205408
  C 3.161500 -0.374517 -0.757814
  C 4.543918 -0.431232 -0.933744
  C 5.200237 -0.866559 -2.087701
  C 4.551946 -1.344147 -3.325328
  H 3.472862 -1.347193 -3.308655
  O 6.505979 -0.876803 -2.148321
  H 0.564912 0.495158 1.205191
  H 0.645751 -0.922010 0.146105
  H 0.667972 0.669786 -0.561203
  H 2.541969 -0.714451 -1.577207
  H 5.159486 -0.107889 -0.102123
  H 4.916894 -2.350683 -3.538039
  H 4.902586 -0.729525 -4.156432
  H 6.958100 -0.564181 -1.341816
 17
 -1.062797
  C 1.007632 0.122779 0.363015
  C 2.462993 0.058485 0.271618
  H 3.049237 0.435736 1.097095
  C 3.104407 -0.429498 -0.844700
  C 4.491559 -0.441884 -0.973730
  C 5.207351 -0.872810 -2.093886
  C 4.605323 -1.400097 -3.333846
  H 3.526989 -1.467975 -3.292823
  O 6.511621 -0.827302 -2.113478
  H 0.664023 0.369760 1.359631
  H 0.548405 -0.802238 0.018281
  H 0.649128 0.892825 -0.328667
  H 2.489869 -0.797061 -1.656416
  H 5.064090 -0.078617 -0.127681
  H 5.030140 -2.381117 -3.545927
  H 4.901567 -0.765168 -4.170386
  H 6.934377 -0.479038 -1.303502
 17
 -1.248775
  C 1.001389 0.125379 0.362269
  C 2.454950 0.046933 0.257454
  H 3.044968 0.431917 1.081440
  C 3.093874 -0.446439 -0.853865
  C 4.484182 -0.426636 -0.988464
  C 5.207368 -0.874965 -2.096334
  C 4.612633 -1.454470 -3.316418
  H 3.544939 -1.607593 -3.239798
  O 6.510128 -0.796649 -2.123856
  H 0.652686 0.141764 1.388847
  H 0.494345 -0.628697 -0.230790
  H 0.737015 1.095001 -0.078218
  H 2.486066 -0.847811 -1.648969
  H 5.048637 -0.021218 -0.158501
  H 5.109263 -2.398144 -3.543211
  H 4.826228 -0.798051 -4.161138
  H 6.926243 -0.408030 -1.330462
 17
 6.754887
  C 0.994715 0.056718 0.410899
  C 2.435250 0.033786 0.254180
  H 3.039416 0.377985 1.083963
  C 3.072483 -0.472233 -0.853438
  C 4.459981 -0.404328 -0.999795
  C 5.191074 -0.854137 -2.096194
  C 4.615254 -1.465684 -3.312260
  H 3.551278 -1.643387 -3.235014
  O 6.498069 -0.747611 -2.128044
  H 0.587117 0.177885 1.402406
  H 0.415838 -0.527097 -0.291260
  H 1.081914 1.090387 -0.029456
  H 2.474779 -0.913498 -1.636786
  H 5.016756 0.035267 -0.181145
  H 5.132252 -2.401608 -3.520570
  H 4.813132 -0.814769 -4.164341
  H 6.896914 -0.336898 -1.338104
 17
 22.523604
  C 0.986231 -0.012031 0.471762
  C 2.396206 0.066706 0.234427
  H 3.024985 0.397064 1.054307
  C 3.048899 -0.471919 -0.869140
  C 4.433612 -0.394505 -1.013564
  C 5.169158 -0.845777 -2.098159
  C 4.608076 -1.470634 -3.319277
  H 3.544833 -1.654980 -3.247863
  O 6.486480 -0.733975 -2.126380
  H 0.562724 0.224256 1.431810
  H 0.361724 -0.516370 -0.249229
  H 1.394949 1.029379 -0.041820
  H 2.455229 -0.927283 -1.646541
  H 4.987643 0.052338 -0.196755
  H 5.131369 -2.405614 -3.514369
  H 4.806896 -0.823648 -4.173659
  H 6.869815 -0.316634 -1.334240
 17
 32.441317
  C 0.971762 -0.077193 0.509889
  C 2.364235 0.118274 0.235614
  H 2.997710 0.425973 1.062981
  C 3.038879 -0.447634 -0.883749
  C 4.414940 -0.382518 -1.021483
  C 5.151364 -0.845908 -2.099913
  C 4.591734 -1.472787 -3.321693
  H 3.526528 -1.647101 -3.255289
  O 6.472729 -0.747608 -2.121482
  H 0.541431 0.199116 1.454614
  H 0.337830 -0.551078 -0.221038
  H 1.692209 1.044365 -0.114054
  H 2.438564 -0.905461 -1.654002
  H 4.971687 0.063840 -0.206438
  H 5.107327 -2.413601 -3.508639
  H 4.800993 -0.832024 -4.178299
  H 6.852729 -0.329429 -1.329202
 17
 31.349047
  C 0.959175 -0.173686 0.526259
  C 2.321177 0.197454 0.231203
  H 2.942063 0.433723 1.093624
  C 3.029874 -0.390554 -0.900965
  C 4.396250 -0.352006 -1.025661
  C 5.132926 -0.848088 -2.100692
  C 4.562895 -1.479381 -3.309528
  H 3.494707 -1.634740 -3.243246
  O 6.442025 -0.782188 -2.109782
  H 0.514403 0.089002 1.466281
  H 0.346464 -0.651758 -0.216176
  H 1.992290 1.177951 -0.196489
  H 2.417441 -0.839908 -1.668528
  H 4.960056 0.093557 -0.214689
  H 5.064023 -2.429877 -3.486630
  H 4.784653 -0.852743 -4.173630
  H 6.832858 -0.358211 -1.323892
 17
 33.588500
  C 0.955078 -0.133508 0.547036
  C 2.320847 0.165932 0.273175
  H 2.936763 0.471873 1.113410
  C 3.027083 -0.408568 -0.878216
  C 4.393364 -0.351377 -1.016224
  C 5.122577 -0.841253 -2.097176
  C 4.546425 -1.454873 -3.314721
  H 3.474895 -1.588784 -3.259156
  O 6.436018 -0.786815 -2.110245
  H 0.530062 0.060561 1.512751
  H 0.322398 -0.560547 -0.209861
  H 2.195378 1.053807 -0.422161
  H 2.421030 -0.908449 -1.618228
  H 4.958033 0.101124 -0.210106
  H 5.028844 -2.414610 -3.493939
  H 4.788295 -0.827753 -4.172928
  H 6.833345 -0.378939 -1.319168
 17
 36.618032
  C 0.965266 -0.106964 0.573508
  C 2.309367 0.126337 0.313742
  H 2.932423 0.446884 1.142129
  C 3.000435 -0.373198 -0.887780
  C 4.387678 -0.336145 -1.022771
  C 5.106453 -0.836154 -2.092180
  C 4.526260 -1.446424 -3.312968
  H 3.453115 -1.571569 -3.260434
  O 6.427198 -0.799249 -2.107655
  H 0.548866 0.082653 1.544164
  H 0.302921 -0.490720 -0.182327
  H 2.415531 0.898953 -0.601839
  H 2.393197 -0.877812 -1.625663
  H 4.951933 0.107697 -0.212110
  H 4.999752 -2.411286 -3.488490
  H 4.775641 -0.822665 -4.171260
  H 6.826936 -0.396466 -1.317013
 17
 33.420637
  C 0.974155 -0.115974 0.601175
  C 2.292346 0.091345 0.354651
  H 2.929952 0.414222 1.168045
  C 2.966925 -0.308042 -0.903329
  C 4.377129 -0.300706 -1.031453
  C 5.093155 -0.827601 -2.086708
  C 4.509528 -1.447930 -3.300454
  H 3.434782 -1.556141 -3.251178
  O 6.414916 -0.808673 -2.097302
  H 0.555448 0.069619 1.573103
  H 0.300545 -0.471796 -0.159736
  H 2.529340 0.833105 -0.771573
  H 2.358293 -0.825237 -1.632007
  H 4.939952 0.144139 -0.220397
  H 4.969223 -2.422253 -3.458465
  H 4.772480 -0.842365 -4.167560
  H 6.817947 -0.399461 -1.311301
 17
 24.694378
  C 1.016249 -0.153455 0.620547
  C 2.315106 0.052478 0.399397
  H 2.968673 0.364223 1.201008
  C 2.945631 -0.213315 -0.931648
  C 4.375147 -0.247998 -1.049654
  C 5.088774 -0.824191 -2.082520
  C 4.496221 -1.465226 -3.277806
  H 3.418556 -1.541878 -3.232565
  O 6.406002 -0.831515 -2.082407
  H 0.583404 -0.012639 1.594880
  H 0.346467 -0.475056 -0.159284
  H 2.601556 0.867580 -1.003014
  H 2.342520 -0.781345 -1.629810
  H 4.937293 0.209002 -0.244974
  H 4.930810 -2.455833 -3.404635
  H 4.781849 -0.895271 -4.162062
  H 6.817200 -0.407965 -1.307082
 17
 17.928830
  C 1.045297 -0.168485 0.642525
  C 2.341406 0.021110 0.415611
  H 3.011043 0.313728 1.210187
  C 2.923100 -0.142739 -0.952512
  C 4.366480 -0.206114 -1.059663
  C 5.082029 -0.815303 -2.076790
  C 4.485388 -1.472074 -3.258725
  H 3.405790 -1.522231 -3.222498
  O 6.395119 -0.838793 -2.064822
  H 0.618450 -0.071875 1.625196
  H 0.363835 -0.447568 -0.144064
  H 2.613059 0.885511 -1.249124
  H 2.355743 -0.813197 -1.593282
  H 4.926546 0.265233 -0.261605
  H 4.899230 -2.474868 -3.359968
  H 4.793901 -0.932516 -4.154756
  H 6.811736 -0.403786 -1.297793
 17
 16.206869
  C 1.041651 -0.088516 0.659113
  C 2.349833 -0.001430 0.430300
  H 3.033445 0.257689 1.224870
  C 2.910399 -0.200737 -0.936355
  C 4.361289 -0.232163 -1.041232
  C 5.085090 -0.801304 -2.076801
  C 4.491658 -1.431997 -3.273910
  H 3.410627 -1.457087 -3.254856
  O 6.397207 -0.806203 -2.067974
  H 0.622056 0.046429 1.640238
  H 0.341195 -0.321773 -0.125879
  H 2.543835 0.713668 -1.442904
  H 2.412072 -1.012941 -1.470320
  H 4.913605 0.234483 -0.235094
  H 4.884327 -2.443079 -3.381279
  H 4.828360 -0.891866 -4.159274
  H 6.811502 -0.387141 -1.290728
 17
 16.023288
  C 1.030545 0.021019 0.644703
  C 2.347419 -0.009472 0.453379
  H 3.028142 0.260633 1.247606
  C 2.918002 -0.340256 -0.886577
  C 4.371463 -0.310691 -0.999805
  C 5.093604 -0.785728 -2.084365
  C 4.490301 -1.354884 -3.305667
  H 3.409715 -1.385477 -3.274132
  O 6.405084 -0.750542 -2.101345
  H 0.581092 0.299255 1.580256
  H 0.344605 -0.252183 -0.140634
  H 2.482193 0.435338 -1.545243
  H 2.489451 -1.269396 -1.276830
  H 4.921403 0.121450 -0.172621
  H 4.887107 -2.358623 -3.470373
  H 4.814869 -0.769979 -4.164699
  H 6.823156 -0.374430 -1.305735
 17
 15.255416
  C 1.025472 0.031580 0.658554
  C 2.335545 0.056958 0.413078
  H 3.019237 0.398349 1.177770
  C 2.912071 -0.366940 -0.886512
  C 4.367620 -0.355952 -0.977576
  C 5.093636 -0.780876 -2.078810
  C 4.492574 -1.303068 -3.325356
  H 3.411847 -1.300935 -3.312843
  O 6.404491 -0.746697 -2.089746
  H 0.622596 0.335192 1.608061
  H 0.310437 -0.297406 -0.079304
  H 2.488018 0.277275 -1.676505
  H 2.508360 -1.351051 -1.167178
  H 4.914120 0.015250 -0.120529
  H 4.856767 -2.315341 -3.500463
  H 4.853719 -0.715324 -4.167771
  H 6.821641 -0.404980 -1.276956
