 20
 0.000000
  C -1.079408 0.189098 0.025450
  C -1.800117 -0.877784 0.842937
  C -1.284645 -0.896076 2.283027
  C -3.295671 -0.652679 0.825478
  O -3.796254 0.338901 0.329418
  C -4.155532 -1.718593 1.449119
  H -0.009801 -0.001222 -0.002063
  H -1.239142 1.179262 0.446453
  H -1.445531 0.203565 -0.999131
  H -1.615949 -1.852369 0.377348
  H -1.520627 0.035883 2.792395
  H -0.208945 -1.034928 2.304370
  H -1.732341 -1.705035 2.854800
  H -3.569495 -2.592637 1.721207
  H -4.916555 -2.022817 0.735951
  H -4.630801 -1.315849 2.338847
  O 2.960751 0.171489 -0.056631
  H 1.998221 0.001431 -0.003066
  H 3.152697 1.132773 -0.080236
  H 3.363835 -0.293560 -0.820131
 20
 1.226693
  C -1.010403 0.187473 0.018838
  C -1.734287 -0.873289 0.826894
  C -1.237906 -0.894310 2.287068
  C -3.230459 -0.634350 0.802512
  O -3.717203 0.366890 0.300760
  C -4.084187 -1.702336 1.425082
  H 0.053550 -0.005263 0.006033
  H -1.181334 1.180105 0.442925
  H -1.371006 0.205584 -1.008010
  H -1.562856 -1.864967 0.378147
  H -1.475859 0.047773 2.778233
  H -0.163974 -1.040594 2.319300
  H -1.701894 -1.695160 2.849864
  H -3.509303 -2.577794 1.701163
  H -4.857453 -1.993449 0.717214
  H -4.572200 -1.299827 2.310008
  O 2.717261 0.133070 -0.009231
  H 1.749705 -0.016777 0.028173
  H 2.927176 1.113986 -0.022829
  H 3.129922 -0.348377 -0.785871
 20
 2.580299
  C -0.953926 0.199214 0.013777
  C -1.693313 -0.871403 0.820137
  C -1.207343 -0.882841 2.272451
  C -3.185499 -0.632659 0.784984
  O -3.669214 0.368939 0.292614
  C -4.034241 -1.700193 1.410514
  H 0.117738 0.010106 0.013465
  H -1.137700 1.164988 0.440870
  H -1.306509 0.219206 -1.003879
  H -1.528846 -1.855598 0.380948
  H -1.440469 0.067540 2.753634
  H -0.134150 -1.038372 2.307467
  H -1.684970 -1.679219 2.843170
  H -3.461077 -2.576120 1.682926
  H -4.824509 -1.977430 0.711486
  H -4.523971 -1.287400 2.295500
  O 2.544903 0.102558 0.020587
  H 1.562774 -0.038668 0.047883
  H 2.761302 1.061422 0.023097
  H 2.944950 -0.369874 -0.738639
 20
 6.451579
  C -0.926946 0.197330 0.017443
  C -1.665375 -0.872812 0.812440
  C -1.200845 -0.882198 2.272386
  C -3.159811 -0.636023 0.764759
  O -3.636610 0.377192 0.285329
  C -4.015822 -1.694308 1.403526
  H 0.174695 -0.013575 0.020173
  H -1.104263 1.164871 0.450925
  H -1.277859 0.224563 -1.007251
  H -1.487598 -1.855886 0.377785
  H -1.434659 0.069990 2.748241
  H -0.128024 -1.045023 2.324864
  H -1.690655 -1.673141 2.836793
  H -3.449949 -2.577934 1.673839
  H -4.817438 -1.966298 0.716448
  H -4.489941 -1.272738 2.291716
  O 2.458948 0.095858 0.034321
  H 1.424536 -0.026891 0.054443
  H 2.683580 1.053784 0.028021
  H 2.858673 -0.385432 -0.721410
 20
 11.656145
  C -0.887930 0.187769 0.012851
  C -1.630481 -0.878358 0.818821
  C -1.171155 -0.888064 2.278029
  C -3.132971 -0.626511 0.760914
  O -3.597340 0.383072 0.271332
  C -4.008089 -1.680404 1.391008
  H 0.215106 -0.021911 0.022410
  H -1.078084 1.159369 0.444591
  H -1.248259 0.205885 -1.022169
  H -1.458796 -1.867062 0.398661
  H -1.397873 0.063250 2.748364
  H -0.101141 -1.061911 2.334427
  H -1.670334 -1.672445 2.844184
  H -3.455710 -2.568561 1.666563
  H -4.807216 -1.943066 0.697207
  H -4.485205 -1.255767 2.275145
  O 2.356683 0.094750 0.050608
  H 1.289230 -0.020062 0.061398
  H 2.588291 1.049899 0.048524
  H 2.756783 -0.381951 -0.701549
 20
 19.566780
  C -0.887795 0.197314 0.014648
  C -1.630760 -0.869939 0.820356
  C -1.165474 -0.874193 2.285879
  C -3.131760 -0.623755 0.766997
  O -3.600620 0.384025 0.277130
  C -4.000688 -1.690455 1.381113
  H 0.244063 -0.024792 0.025924
  H -1.065811 1.172983 0.450544
  H -1.241960 0.219220 -1.020828
  H -1.459458 -1.863543 0.397551
  H -1.389436 0.076762 2.752852
  H -0.096573 -1.048171 2.340202
  H -1.662472 -1.655131 2.857456
  H -3.444767 -2.578855 1.645448
  H -4.798285 -1.947684 0.682325
  H -4.480240 -1.281129 2.270186
  O 2.335246 0.077716 0.055125
  H 1.189425 -0.022495 0.063117
  H 2.583917 1.029164 0.044051
  H 2.726998 -0.404481 -0.689913
 20
 29.543014
  C -0.914614 0.203739 0.007795
  C -1.642996 -0.865244 0.813286
  C -1.172386 -0.868516 2.282666
  C -3.141339 -0.625138 0.768553
  O -3.617092 0.385345 0.289395
  C -3.991370 -1.694892 1.384243
  H 0.251573 -0.024864 0.025840
  H -1.076392 1.187994 0.441670
  H -1.245392 0.221802 -1.020637
  H -1.468730 -1.863578 0.382009
  H -1.399049 0.085247 2.754423
  H -0.101396 -1.039223 2.334952
  H -1.664021 -1.649874 2.853403
  H -3.425865 -2.584103 1.637205
  H -4.794469 -1.950666 0.694222
  H -4.462105 -1.293779 2.280577
  O 2.363713 0.065145 0.064677
  H 1.099962 -0.022487 0.064485
  H 2.627139 1.008270 0.056563
  H 2.746307 -0.408959 -0.679281
 20
 42.752905
  C -0.963225 0.208534 0.014417
  C -1.670612 -0.860673 0.816014
  C -1.194672 -0.861775 2.278072
  C -3.173569 -0.629316 0.777541
  O -3.657555 0.381547 0.308593
  C -4.011846 -1.708317 1.392836
  H 0.303249 -0.030324 0.029686
  H -1.118214 1.187506 0.450612
  H -1.291642 0.225306 -1.018041
  H -1.491096 -1.851664 0.383523
  H -1.424311 0.088506 2.750296
  H -0.123306 -1.025550 2.324252
  H -1.678933 -1.646792 2.850285
  H -3.440270 -2.595538 1.634379
  H -4.819725 -1.963033 0.707969
  H -4.477491 -1.315975 2.295726
  O 2.478192 0.074588 0.054019
  H 1.081023 -0.021177 0.061014
  H 2.736650 1.008976 0.037440
  H 2.859029 -0.404510 -0.699293
 20
 56.802091
  C -1.038909 0.221934 0.019189
  C -1.709944 -0.852694 0.818722
  C -1.229142 -0.854185 2.280307
  C -3.229929 -0.631113 0.787807
  O -3.729552 0.372705 0.330901
  C -4.037217 -1.730838 1.405956
  H 0.335318 -0.033778 0.025903
  H -1.166203 1.205374 0.457067
  H -1.347385 0.240652 -1.020792
  H -1.528058 -1.839016 0.378854
  H -1.460148 0.092483 2.757878
  H -0.157630 -1.008575 2.320397
  H -1.702204 -1.649243 2.848548
  H -3.448538 -2.612270 1.635237
  H -4.851972 -1.988836 0.728753
  H -4.499253 -1.353991 2.316267
  O 2.663519 0.079851 0.033347
  H 1.063807 -0.014718 0.051239
  H 2.921575 1.010198 0.000215
  H 3.031888 -0.401739 -0.720707
 20
 67.162210
  C -1.156991 0.241562 0.025074
  C -1.791498 -0.832577 0.815635
  C -1.294456 -0.834202 2.266401
  C -3.323196 -0.633628 0.809452
  O -3.856054 0.355731 0.375427
  C -4.062485 -1.771192 1.433752
  H 0.338238 -0.043326 0.014832
  H -1.226920 1.219121 0.475612
  H -1.435207 0.284215 -1.022600
  H -1.590420 -1.804559 0.361256
  H -1.531220 0.105435 2.753289
  H -0.218441 -0.975305 2.289371
  H -1.748760 -1.637574 2.835005
  H -3.438686 -2.631838 1.633737
  H -4.884440 -2.045606 0.772858
  H -4.513236 -1.424852 2.364218
  O 2.970412 0.075827 0.005017
  H 1.053118 -0.007618 0.036301
  H 3.239845 1.005825 -0.045222
  H 3.326911 -0.402225 -0.748474
 20
 74.269275
  C -1.265658 0.260299 0.017366
  C -1.871428 -0.809805 0.796905
  C -1.365533 -0.824681 2.250755
  C -3.435853 -0.638615 0.835553
  O -4.004046 0.336886 0.443632
  C -4.104714 -1.807916 1.470190
  H 0.378722 -0.050423 -0.003993
  H -1.296063 1.245140 0.471106
  H -1.517530 0.300599 -1.036513
  H -1.666110 -1.784301 0.340839
  H -1.603651 0.108247 2.755309
  H -0.284822 -0.954838 2.254878
  H -1.803999 -1.639834 2.816690
  H -3.452539 -2.651038 1.631609
  H -4.945066 -2.095813 0.840658
  H -4.524951 -1.484043 2.422251
  O 3.304366 0.092645 -0.029652
  H 1.084520 -0.009809 0.015222
  H 3.581999 1.017338 -0.081244
  H 3.670216 -0.372922 -0.786392
 20
 79.042335
  C -1.374878 0.275766 0.019589
  C -1.950248 -0.790731 0.796130
  C -1.433426 -0.808655 2.243225
  C -3.540429 -0.645433 0.874158
  O -4.129331 0.323082 0.513948
  C -4.152337 -1.846918 1.493689
  H 0.439573 -0.062283 -0.020508
  H -1.370769 1.262773 0.469679
  H -1.609160 0.315469 -1.040902
  H -1.732764 -1.759843 0.332781
  H -1.688620 0.111433 2.761985
  H -0.351201 -0.909373 2.228995
  H -1.839930 -1.642658 2.806764
  H -3.468880 -2.683587 1.621821
  H -4.999053 -2.146088 0.871265
  H -4.559693 -1.552533 2.462118
  O 3.646879 0.116859 -0.081470
  H 1.137931 -0.007589 -0.005294
  H 3.927384 1.038018 -0.154433
  H 4.019063 -0.360424 -0.825997
 20
 80.422345
  C -1.498468 0.283492 0.026289
  C -2.027316 -0.776636 0.803733
  C -1.519744 -0.786608 2.254709
  C -3.648548 -0.657760 0.920955
  O -4.245008 0.305818 0.591425
  C -4.204751 -1.895447 1.503569
  H 0.522294 -0.094932 -0.047840
  H -1.443715 1.268249 0.478286
  H -1.711620 0.324285 -1.033177
  H -1.840658 -1.742928 0.328001
  H -1.794003 0.128751 2.771350
  H -0.434181 -0.856532 2.244642
  H -1.913466 -1.629071 2.818821
  H -3.504100 -2.717340 1.586236
  H -5.060065 -2.188748 0.887097
  H -4.598605 -1.648380 2.492219
  O 4.053450 0.155542 -0.169707
  H 1.231260 -0.020207 -0.037030
  H 4.341224 1.072617 -0.248391
  H 4.435700 -0.318599 -0.915407
 20
 81.748021
  C -1.601135 0.300093 0.026993
  C -2.088963 -0.762188 0.812757
  C -1.598760 -0.772985 2.266726
  C -3.743384 -0.680162 0.947923
  O -4.349512 0.284861 0.652270
  C -4.249890 -1.929410 1.512524
  H 0.622878 -0.112443 -0.083389
  H -1.512980 1.289662 0.459252
  H -1.786884 0.312427 -1.043241
  H -1.924566 -1.723899 0.325122
  H -1.881946 0.134656 2.796983
  H -0.510474 -0.843861 2.256934
  H -1.966587 -1.643978 2.812455
  H -3.530290 -2.738588 1.555871
  H -5.108496 -2.229913 0.909057
  H -4.611776 -1.714352 2.519629
  O 4.407060 0.194794 -0.266494
  H 1.326122 -0.019503 -0.075149
  H 4.703691 1.109974 -0.317992
  H 4.796501 -0.285697 -1.001624
