 20
 0.000000
  C 1.007420 -0.072219 0.046281
  C 2.503720 -0.081710 0.027653
  C 3.220668 -0.594080 -0.978220
  C 4.658200 -0.605302 -1.000250
  C 5.377269 -1.120814 -2.012284
  C 6.815500 -1.131250 -2.032764
  C 7.533801 -1.642981 -3.037385
  C 9.023944 -1.661865 -3.074450
  H 0.642962 0.393695 0.960946
  H 0.612927 -1.087519 0.006768
  H 0.612929 0.492775 -0.798215
  H 3.001428 0.354431 0.883874
  H 2.709613 -1.027648 -1.829377
  H 5.163688 -0.170581 -0.146823
  H 4.872074 -1.555575 -2.865793
  H 7.322787 -0.696823 -1.179915
  H 7.036226 -2.079610 -3.894544
  H 9.457139 -1.208506 -2.184441
  H 9.383554 -1.115813 -3.948082
  H 9.383552 -2.689584 -3.146429
 20
 0.160301
  C 1.002375 -0.065440 0.040124
  C 2.493838 -0.086721 0.010715
  C 3.220970 -0.606918 -0.978057
  C 4.653989 -0.612222 -0.981027
  C 5.397070 -1.118143 -1.978301
  C 6.833977 -1.124767 -1.999300
  C 7.539614 -1.627848 -3.015365
  C 9.020385 -1.664554 -3.099002
  H 0.635504 0.409031 0.945402
  H 0.603985 -1.078695 -0.004722
  H 0.610031 0.478818 -0.818533
  H 3.017138 0.351058 0.847809
  H 2.732152 -1.051909 -1.833832
  H 5.141257 -0.172692 -0.121227
  H 4.902515 -1.553480 -2.837417
  H 7.337979 -0.696672 -1.142947
  H 6.992716 -2.044864 -3.850379
  H 9.471085 -1.222593 -2.215189
  H 9.363327 -1.120487 -3.978662
  H 9.368531 -2.692683 -3.195114
 20
 0.391893
  C 1.008963 0.013641 0.002291
  C 2.503625 -0.023830 -0.026045
  C 3.219656 -0.731889 -0.902868
  C 4.657774 -0.741404 -0.927278
  C 5.390524 -1.269538 -1.922277
  C 6.824059 -1.222962 -1.973793
  C 7.533782 -1.608702 -3.035305
  C 9.015834 -1.564304 -3.131132
  H 0.648101 0.647734 0.810715
  H 0.601967 -0.992552 0.141411
  H 0.614476 0.399838 -0.942889
  H 3.024057 0.572650 0.707080
  H 2.715387 -1.318698 -1.661581
  H 5.157633 -0.254539 -0.100210
  H 4.891346 -1.740463 -2.762783
  H 7.326836 -0.830021 -1.100351
  H 7.004483 -1.975765 -3.908082
  H 9.455205 -1.179208 -2.212596
  H 9.322240 -0.930446 -3.959560
  H 9.412171 -2.561738 -3.320230
 20
 2.089487
  C 1.007464 0.026832 -0.076114
  C 2.502787 -0.013408 -0.087834
  C 3.241131 -0.807267 -0.866898
  C 4.675570 -0.799927 -0.815938
  C 5.444787 -1.327127 -1.777414
  C 6.876980 -1.194793 -1.871056
  C 7.512599 -1.573857 -2.984570
  C 8.971652 -1.530876 -3.226935
  H 0.635608 0.754088 0.642677
  H 0.605050 -0.956086 0.179446
  H 0.621875 0.276225 -1.067339
  H 3.037979 0.660180 0.563274
  H 2.774743 -1.463827 -1.589792
  H 5.128893 -0.229119 -0.018142
  H 4.964484 -1.859026 -2.590078
  H 7.405811 -0.773699 -1.021372
  H 6.857759 -1.938771 -3.764051
  H 9.495113 -1.138769 -2.360377
  H 9.198105 -0.910413 -4.097990
  H 9.346943 -2.533457 -3.436065
 20
 3.655903
  C 1.008659 0.040183 -0.145074
  C 2.503622 0.017969 -0.155250
  C 3.262258 -0.868317 -0.806617
  C 4.693320 -0.801042 -0.765913
  C 5.473162 -1.417815 -1.668602
  C 6.902870 -1.267802 -1.799543
  C 7.489640 -1.582925 -2.958141
  C 8.928198 -1.467270 -3.293338
  H 0.632760 0.858791 0.462790
  H 0.617001 -0.897768 0.249363
  H 0.618788 0.155077 -1.155836
  H 3.041951 0.779251 0.405918
  H 2.819832 -1.630660 -1.434520
  H 5.132537 -0.183018 0.005274
  H 4.989468 -1.991179 -2.449600
  H 7.460710 -0.888812 -0.951734
  H 6.794620 -1.897059 -3.719558
  H 9.494569 -1.097808 -2.441713
  H 9.070977 -0.790345 -4.134451
  H 9.327053 -2.442015 -3.587773
 20
 4.955581
  C 1.005682 -0.008129 -0.169267
  C 2.501465 0.034264 -0.197965
  C 3.286413 -0.909136 -0.710202
  C 4.729951 -0.790217 -0.719077
  C 5.492099 -1.417736 -1.622533
  C 6.898869 -1.225932 -1.815263
  C 7.461600 -1.568490 -2.976388
  C 8.895759 -1.450478 -3.337769
  H 0.597082 0.895313 0.284956
  H 0.661062 -0.868945 0.397900
  H 0.600770 -0.096473 -1.182118
  H 2.994350 0.892807 0.206066
  H 2.860083 -1.761573 -1.224996
  H 5.169876 -0.080230 -0.028220
  H 4.999811 -2.035152 -2.364389
  H 7.472032 -0.807710 -0.999167
  H 6.765451 -1.962824 -3.711528
  H 9.463194 -1.023445 -2.515832
  H 9.024890 -0.819804 -4.216799
  H 9.302897 -2.431931 -3.570903
 20
 5.430529
  C 1.019281 -0.010627 -0.271327
  C 2.511594 0.017356 -0.315684
  C 3.295152 -1.007731 -0.620102
  C 4.734688 -0.861150 -0.652503
  C 5.493914 -1.495159 -1.546501
  C 6.899003 -1.281018 -1.778421
  C 7.407179 -1.558794 -2.973645
  C 8.818824 -1.403115 -3.403756
  H 0.617535 0.964927 -0.009746
  H 0.675872 -0.737585 0.465270
  H 0.607976 -0.306158 -1.239561
  H 3.020280 0.937178 -0.091655
  H 2.882610 -1.960747 -0.921940
  H 5.167974 -0.115565 0.003886
  H 5.004187 -2.169850 -2.239221
  H 7.502570 -0.886237 -0.971312
  H 6.672069 -1.895711 -3.688766
  H 9.435926 -1.045362 -2.582883
  H 8.890363 -0.698865 -4.233263
  H 9.212580 -2.357398 -3.752507
 20
 6.011293
  C 1.052487 0.025153 -0.302753
  C 2.548660 0.069485 -0.392282
  C 3.333643 -1.007478 -0.451558
  C 4.779767 -0.910886 -0.599081
  C 5.472736 -1.591819 -1.530878
  C 6.866790 -1.372501 -1.812036
  C 7.378293 -1.541681 -3.010578
  C 8.797993 -1.279725 -3.383796
  H 0.629259 1.025852 -0.327425
  H 0.739762 -0.458851 0.624369
  H 0.633489 -0.548345 -1.127996
  H 3.008003 1.034010 -0.439310
  H 2.898180 -2.002349 -0.472094
  H 5.284862 -0.168385 0.009784
  H 4.953299 -2.285858 -2.180932
  H 7.481287 -1.001794 -0.999029
  H 6.719843 -1.847308 -3.807632
  H 9.372571 -0.949124 -2.522435
  H 8.850993 -0.514449 -4.157216
  H 9.257426 -2.185638 -3.787931
 20
 8.068238
  C 1.075281 -0.050163 -0.409774
  C 2.567114 0.003579 -0.501150
  C 3.372899 -1.035689 -0.330397
  C 4.819371 -0.911615 -0.490269
  C 5.495497 -1.603811 -1.399504
  C 6.883748 -1.374057 -1.745044
  C 7.312300 -1.525753 -2.989698
  C 8.694658 -1.263994 -3.469814
  H 0.634991 0.912542 -0.654244
  H 0.765281 -0.325193 0.597837
  H 0.673247 -0.798524 -1.092396
  H 3.022335 0.957540 -0.746987
  H 2.971961 -2.025231 -0.154181
  H 5.314002 -0.133836 0.077808
  H 4.965432 -2.325680 -2.009289
  H 7.542690 -1.016295 -0.967108
  H 6.575586 -1.811763 -3.732058
  H 9.338362 -0.953379 -2.650351
  H 8.690315 -0.483376 -4.230930
  H 9.112751 -2.162056 -3.925183
 20
 9.483119
  C 1.106550 -0.074033 -0.497981
  C 2.599916 -0.024275 -0.586518
  C 3.414211 -1.008317 -0.226154
  C 4.864123 -0.883715 -0.396076
  C 5.525740 -1.589003 -1.314095
  C 6.902733 -1.359621 -1.705826
  C 7.267845 -1.477172 -2.981996
  C 8.625767 -1.210226 -3.529804
  H 0.661535 0.822997 -0.919449
  H 0.789220 -0.160526 0.541146
  H 0.716631 -0.938846 -1.033748
  H 3.049437 0.878093 -0.980931
  H 3.024676 -1.961355 0.109875
  H 5.363222 -0.094940 0.153052
  H 4.980814 -2.316429 -1.904475
  H 7.599933 -1.030316 -0.946811
  H 6.486280 -1.729592 -3.688435
  H 9.316537 -0.932920 -2.737043
  H 8.587410 -0.404096 -4.262774
  H 9.009463 -2.095753 -4.037378
 20
 10.142766
  C 1.113664 -0.053335 -0.539941
  C 2.606573 -0.050509 -0.653249
  C 3.398084 -1.013944 -0.208174
  C 4.855550 -0.945590 -0.388410
  C 5.472052 -1.578987 -1.381264
  C 6.866523 -1.397400 -1.740314
  C 7.252884 -1.407450 -3.015948
  C 8.638324 -1.166181 -3.505053
  H 0.682059 0.793046 -1.066618
  H 0.810222 0.002062 0.505530
  H 0.697223 -0.970298 -0.954920
  H 3.067661 0.799479 -1.140803
  H 2.986567 -1.911454 0.237880
  H 5.404337 -0.268887 0.254988
  H 4.887549 -2.202290 -2.047203
  H 7.570055 -1.193073 -0.943831
  H 6.486341 -1.557043 -3.767371
  H 9.321506 -1.005294 -2.674632
  H 8.662591 -0.292033 -4.156208
  H 8.987566 -2.018299 -4.088598
