 21
 0.000000
  C 0.877859 0.043881 0.358040
  C 2.355857 0.059721 0.077307
  C 3.259753 -0.008543 1.287161
  H 2.703352 -0.061086 2.218289
  C 2.921873 0.127472 -1.123352
  C 2.364979 0.206055 -2.516025
  C 0.856290 0.218647 -2.739149
  C 0.540210 0.302764 -4.229875
  H 4.007163 0.128866 -1.147988
  H 0.690103 -0.016530 1.428609
  H 0.398803 -0.816065 -0.104337
  H 0.398804 0.950387 -0.004658
  H 3.905736 0.868515 1.326881
  H 3.905744 -0.884500 1.227965
  H 2.780825 -0.640094 -3.076404
  H 2.780804 1.109835 -2.977629
  H 0.407365 1.077408 -2.240087
  H 0.407375 -0.690796 -2.339872
  H 0.956132 1.210925 -4.661656
  H -0.535927 0.311762 -4.389359
  H 0.956133 -0.551053 -4.761078
 21
 -0.352090
  C 0.895918 0.266004 0.374718
  C 2.359749 0.085610 0.074619
  C 3.254832 -0.117442 1.274514
  H 2.674271 -0.324268 2.169248
  C 2.917790 0.101497 -1.131359
  C 2.361903 0.290877 -2.513863
  C 0.868875 0.075852 -2.750828
  C 0.532465 0.226254 -4.230453
  H 3.996487 -0.017578 -1.158332
  H 0.711687 0.197953 1.444675
  H 0.296712 -0.494623 -0.119926
  H 0.551073 1.240913 0.036140
  H 3.846791 0.777575 1.464572
  H 3.940158 -0.948706 1.113603
  H 2.908113 -0.392828 -3.172775
  H 2.624415 1.305226 -2.840111
  H 0.288377 0.803321 -2.186149
  H 0.584517 -0.923717 -2.419682
  H 0.828434 1.209446 -4.591825
  H -0.537405 0.112230 -4.391809
  H 1.049604 -0.526553 -4.822827
 21
 2.197430
  C 0.901422 0.135688 0.383949
  C 2.380898 0.083840 0.072200
  C 3.273024 -0.039843 1.282002
  H 2.650507 -0.166034 2.171113
  C 2.921183 0.109460 -1.140167
  C 2.362883 0.270846 -2.522435
  C 0.871052 0.092672 -2.763216
  C 0.530911 0.244294 -4.239521
  H 4.008716 0.106703 -1.164591
  H 0.699123 0.043960 1.448920
  H 0.388843 -0.677053 -0.127209
  H 0.483226 1.068165 0.014872
  H 3.848006 0.864120 1.467934
  H 3.922190 -0.911186 1.221974
  H 2.905458 -0.426435 -3.178208
  H 2.637651 1.272356 -2.866024
  H 0.333554 0.874807 -2.217135
  H 0.503441 -0.861427 -2.378634
  H 0.953683 1.166706 -4.630112
  H -0.548596 0.274881 -4.375410
  H 0.929267 -0.580342 -4.822855
 21
 34.879795
  C 0.910402 0.121432 0.376532
  C 2.575114 0.108973 -0.005526
  C 3.269079 -0.060516 1.343199
  H 2.453876 -0.231212 2.067635
  C 3.022041 0.131389 -1.227940
  C 2.413913 0.243055 -2.586407
  C 0.903666 0.148980 -2.757416
  C 0.457663 0.228123 -4.218384
  H 4.100644 0.236406 -1.271698
  H 0.620585 -0.025905 1.407548
  H 0.672660 -0.775317 -0.176534
  H 0.500737 1.054781 0.007276
  H 3.731305 0.828775 1.753041
  H 3.905625 -0.937655 1.451107
  H 2.888878 -0.447639 -3.283376
  H 2.672728 1.235078 -2.969779
  H 0.438180 1.007158 -2.256428
  H 0.393793 -0.651606 -2.224675
  H 1.003574 1.020076 -4.719932
  H -0.619685 0.411423 -4.285892
  H 0.628057 -0.701213 -4.756632
 21
 88.882338
  C 0.718142 0.157855 0.496455
  C 2.752952 0.210764 -0.106425
  C 3.325719 -0.143430 1.263005
  H 2.317409 -0.159026 1.838138
  C 3.164257 0.255924 -1.344329
  C 2.468282 0.320008 -2.663469
  C 0.974815 0.082941 -2.672822
  C 0.450362 0.181751 -4.103077
  H 4.233220 0.317595 -1.442413
  H 0.274669 0.087926 1.474448
  H 0.388762 -0.570752 -0.214520
  H 0.549967 1.187771 0.190463
  H 3.835274 0.629881 1.806670
  H 3.687281 -1.140101 1.366577
  H 2.954928 -0.392450 -3.337338
  H 2.678130 1.308039 -3.119282
  H 0.467270 0.857996 -2.108662
  H 0.731663 -0.893568 -2.243102
  H 0.807611 1.091108 -4.566386
  H -0.642621 0.226577 -4.128868
  H 0.772620 -0.674526 -4.679041
 21
 81.584362
  C 0.577226 0.166072 0.946655
  C 3.058892 0.091796 -0.250847
  C 3.221737 -0.128180 1.007633
  H 1.692755 0.119459 1.125001
  C 3.394887 0.164539 -1.499393
  C 2.646964 0.282907 -2.782667
  C 1.148404 0.058902 -2.707949
  C 0.464631 0.172139 -4.089437
  H 4.507359 0.279694 -1.645825
  H 0.211179 -0.025043 1.986679
  H 0.205710 -0.635096 0.348513
  H 0.206813 1.149246 0.656773
  H 3.587465 0.681347 1.680215
  H 3.511825 -1.141747 1.354613
  H 3.095971 -0.366903 -3.567793
  H 2.814942 1.308799 -3.193833
  H 0.748534 0.880156 -2.124223
  H 0.847119 -0.777136 -2.142332
  H 0.910492 1.016404 -4.643370
  H -0.583332 0.341331 -3.972643
  H 0.584883 -0.699504 -4.724290
 21
 50.439008
  C 0.403360 0.055652 0.832453
  C 3.218828 0.104317 -0.292107
  C 3.333489 -0.075497 0.989211
  H 1.475253 0.049068 1.096155
  C 3.545744 0.164867 -1.559160
  C 2.715944 0.311324 -2.801817
  C 1.218191 0.171031 -2.600966
  C 0.437287 0.188802 -3.910033
  H 4.624892 0.188462 -1.749911
  H -0.182129 -0.039446 1.741367
  H 0.119429 -0.736912 0.146447
  H 0.226255 1.032705 0.397545
  H 3.502487 0.747596 1.659625
  H 3.577418 -1.041096 1.390834
  H 3.061964 -0.398800 -3.551021
  H 2.915005 1.299700 -3.254824
  H 0.888392 1.030834 -2.002342
  H 0.969246 -0.678527 -1.977827
  H 0.778391 0.994241 -4.546526
  H -0.629062 0.318752 -3.719649
  H 0.568700 -0.751971 -4.453542
 21
 39.668486
  C 0.251799 0.154085 0.802350
  C 3.371782 0.075155 -0.382871
  C 3.344378 -0.079549 0.907235
  H 1.330901 0.109765 0.938884
  C 3.676198 0.152131 -1.638132
  C 2.773814 0.303645 -2.823692
  C 1.307841 0.044312 -2.520551
  C 0.446219 0.198885 -3.766934
  H 4.739775 0.146537 -1.886542
  H -0.239498 0.059400 1.762410
  H -0.101667 -0.603557 0.121526
  H 0.017422 1.145095 0.419785
  H 3.473351 0.744396 1.584848
  H 3.417695 -1.066463 1.349999
  H 3.121298 -0.366037 -3.614458
  H 2.881934 1.317030 -3.226054
  H 0.971036 0.781376 -1.782094
  H 1.171992 -0.943358 -2.089123
  H 0.681811 1.139526 -4.271179
  H -0.609307 0.234684 -3.502487
  H 0.614923 -0.616997 -4.460035
 21
 35.189698
  C 0.136743 0.263214 0.832031
  C 3.463060 0.064336 -0.405888
  C 3.366988 -0.079217 0.881225
  H 1.207147 0.207371 0.979710
  C 3.742077 0.156929 -1.668689
  C 2.807696 0.326709 -2.829835
  C 1.361912 -0.039679 -2.515723
  C 0.460775 0.140513 -3.730372
  H 4.790869 0.136543 -1.942157
  H -0.370597 0.109736 1.772990
  H -0.167627 -0.500832 0.127327
  H -0.132148 1.240410 0.448234
  H 3.453189 0.758444 1.554647
  H 3.307045 -1.056342 1.337641
  H 3.175294 -0.279194 -3.663964
  H 2.849047 1.370778 -3.160292
  H 1.007343 0.603487 -1.711049
  H 1.313982 -1.071964 -2.166981
  H 0.572108 1.142919 -4.138979
  H -0.581993 0.006905 -3.453978
  H 0.708805 -0.577358 -4.511440
 21
 32.946900
  C -0.057211 0.170111 0.820089
  C 3.570309 0.059779 -0.448989
  C 3.388252 -0.054585 0.829585
  H 1.022599 0.138144 0.897933
  C 3.848099 0.127329 -1.713526
  C 2.880465 0.312491 -2.846608
  C 1.429966 0.056743 -2.452704
  C 0.489143 0.195503 -3.643323
  H 4.891708 0.084684 -2.007419
  H -0.501332 -0.003455 1.791934
  H -0.388530 -0.596982 0.131718
  H -0.367051 1.139862 0.452100
  H 3.383471 0.805303 1.482386
  H 3.259904 -1.016430 1.301994
  H 3.167724 -0.356459 -3.663949
  H 2.977966 1.336800 -3.224286
  H 1.143883 0.768464 -1.676792
  H 1.344681 -0.946212 -2.029613
  H 0.608755 1.169994 -4.113222
  H -0.545927 0.096165 -3.324842
  H 0.693592 -0.571545 -4.388130
 21
 33.377528
  C -0.105070 0.009336 1.013570
  C 3.530190 0.058906 -0.474709
  C 3.137106 0.003771 0.760536
  H 0.926248 0.021148 0.679070
  C 3.880569 0.150321 -1.718580
  C 2.945926 0.231730 -2.894683
  C 1.473750 0.210224 -2.497325
  C 0.561467 0.290383 -3.715506
  H 4.936234 0.152722 -1.968265
  H -0.131763 -0.062899 2.093610
  H -0.599463 -0.852676 0.578881
  H -0.607258 0.914538 0.698944
  H 3.077314 0.891730 1.371426
  H 3.044721 -0.937566 1.279941
  H 3.158055 -0.605086 -3.565691
  H 3.163910 1.150989 -3.447262
  H 1.272204 1.051749 -1.831262
  H 1.267187 -0.708541 -1.943818
  H 0.743410 1.210370 -4.270338
  H -0.481193 0.275034 -3.412281
  H 0.737146 -0.550386 -4.381905
 21
 39.124612
  C 0.002961 -0.021440 1.102061
  C 3.392667 0.086896 -0.458315
  C 2.933821 0.068035 0.757470
  H 1.046226 0.036716 0.742330
  C 3.798402 0.166547 -1.690379
  C 2.916593 0.218891 -2.901523
  C 1.446688 0.216416 -2.558302
  C 0.586681 0.284854 -3.797152
  H 4.860095 0.141636 -1.902140
  H 0.078012 -0.040004 2.175850
  H -0.438543 -0.940648 0.715511
  H -0.526944 0.845969 0.758327
  H 3.010966 0.947808 1.378681
  H 2.951074 -0.871495 1.303232
  H 3.146681 -0.646836 -3.543926
  H 3.169991 1.128994 -3.476922
  H 1.227365 1.077335 -1.918121
  H 1.211479 -0.691683 -1.992610
  H 0.798314 1.192525 -4.358984
  H -0.467251 0.275441 -3.533639
  H 0.785415 -0.570157 -4.447098
 21
 62.900500
  C 0.142561 0.004119 1.439041
  C 3.149820 0.075856 -0.446050
  C 2.634652 0.020581 0.765277
  H 1.040320 0.045027 0.810552
  C 3.666277 0.190989 -1.616064
  C 2.906506 0.245851 -2.919100
  C 1.387102 0.210471 -2.722533
  C 0.651715 0.271918 -4.056499
  H 4.741397 0.183319 -1.735256
  H 0.462449 -0.082913 2.458679
  H -0.296098 -0.876632 1.003079
  H -0.303352 0.950991 1.162039
  H 2.917163 0.829228 1.428358
  H 2.796576 -0.943755 1.243458
  H 3.220234 -0.594084 -3.544176
  H 3.190107 1.164378 -3.442010
  H 1.089936 1.058256 -2.099752
  H 1.122836 -0.710487 -2.195343
  H 0.904189 1.185629 -4.588797
  H -0.427052 0.245700 -3.905255
  H 0.933350 -0.568644 -4.685297
