19

H 1.380439241967488 0.13855831085953255 0.39591865537583576
C 2.450439 0.138386 0.39522
C 3.235505 0.608254 1.564554
C 2.457566 1.097858 2.783398
C 3.406198 1.543204 3.891755
C 3.067155 -0.325235 -0.759147
C 4.445765 -0.410892 -0.97279
C 5.119246 -0.862009 -2.097393
H 4.762015649124809 -1.2375170738940242 -3.033491372423533
H 6.18922557272351 -0.8594630190490357 -2.0912912022801713
H 3.891468 1.420613 1.231301
H 3.891639 -0.208729 1.885904
H 1.819509 0.300683 3.170111
H 1.81939 1.940927 2.511175
H 4.042217 0.721736 4.215527
H 2.839973 1.889332 4.753508
H 4.042068 2.360444 3.557174
H 2.413004 -0.643308 -1.551372
H 5.063896 -0.07919 -0.146482
