 22
 0.000000
  C 0.972443 0.209477 0.575442
  C 2.410682 0.119723 0.349149
  H 3.079665 0.438966 1.141400
  C 2.953688 -0.352346 -0.825823
  C 4.345389 -0.425176 -1.009062
  C 5.045665 -0.867093 -2.109434
  C 4.619439 -1.387469 -3.405962
  C 3.151546 -1.532565 -3.770528
  C 3.000388 -2.097889 -5.181017
  H 6.127076 -0.827924 -2.011481
  H 0.727712 0.604040 1.556718
  H 0.508159 -0.772375 0.447731
  H 0.506769 0.828634 -0.196390
  H 2.284712 -0.667418 -1.608015
  H 4.943510 -0.088220 -0.170879
  H 5.119899 -2.360095 -3.528333
  H 5.121034 -0.770103 -4.166687
  H 2.658697 -0.559452 -3.733673
  H 2.657283 -2.209895 -3.071918
  H 3.461946 -1.443725 -5.917102
  H 1.949022 -2.199473 -5.437244
  H 3.460227 -3.080191 -5.261120
 22
 12.288345
  C 0.860798 0.226399 0.617686
  C 2.444085 0.130862 0.376998
  H 3.100280 0.451216 1.172296
  C 2.980017 -0.339148 -0.792994
  C 4.363593 -0.410932 -0.973692
  C 5.110159 -0.892270 -2.172270
  C 4.659440 -1.405066 -3.449842
  C 3.182037 -1.537526 -3.782818
  C 2.995136 -2.101298 -5.189471
  H 6.187082 -0.854894 -2.078879
  H 0.623289 0.619808 1.596265
  H 0.410423 -0.756464 0.490166
  H 0.409168 0.846629 -0.154639
  H 2.309393 -0.654761 -1.576716
  H 4.973270 -0.078090 -0.145760
  H 5.151526 -2.381887 -3.582409
  H 5.152641 -0.791753 -4.220856
  H 2.698828 -0.560450 -3.734393
  H 2.697442 -2.209788 -3.073062
  H 3.445941 -1.451117 -5.935670
  H 1.937619 -2.193568 -5.422418
  H 3.444268 -3.087668 -5.279626
 22
 37.536178
  C 0.734829 0.223666 0.611562
  C 2.512763 0.139917 0.398660
  H 3.096403 0.474886 1.229551
  C 3.024701 -0.331886 -0.775454
  C 4.395813 -0.401656 -0.951448
  C 5.154386 -0.911698 -2.220442
  C 4.665844 -1.410861 -3.463207
  C 3.188720 -1.533999 -3.773488
  C 2.979408 -2.095198 -5.174901
  H 6.216011 -0.861504 -2.095152
  H 0.535848 0.615985 1.587317
  H 0.378619 -0.785636 0.467625
  H 0.376767 0.851186 -0.191155
  H 2.344972 -0.647113 -1.557620
  H 5.057267 -0.085194 -0.164871
  H 5.154208 -2.387308 -3.612974
  H 5.155404 -0.810010 -4.246252
  H 2.712007 -0.553079 -3.714603
  H 2.710107 -2.201545 -3.053656
  H 3.421434 -1.447114 -5.928401
  H 1.917740 -2.180356 -5.391053
  H 3.419150 -3.085252 -5.272035
 22
 69.207471
  C 0.608193 0.239246 0.649953
  C 2.546643 0.154204 0.435177
  H 3.113571 0.495215 1.281795
  C 3.052303 -0.317113 -0.737789
  C 4.424197 -0.387909 -0.916788
  C 5.217163 -0.933455 -2.275053
  C 4.703323 -1.429225 -3.509444
  C 3.212141 -1.541025 -3.790983
  C 2.970055 -2.101683 -5.190689
  H 6.288235 -0.882154 -2.147365
  H 0.424137 0.634294 1.632581
  H 0.279705 -0.777679 0.505482
  H 0.278512 0.872385 -0.158341
  H 2.372821 -0.630226 -1.515559
  H 5.103524 -0.076369 -0.142494
  H 5.185126 -2.412183 -3.669245
  H 5.186260 -0.830337 -4.304455
  H 2.744657 -0.557383 -3.722527
  H 2.743091 -2.204046 -3.062308
  H 3.401765 -1.457252 -5.952966
  H 1.903559 -2.178758 -5.385914
  H 3.400022 -3.095057 -5.296712
 22
 98.378979
  C 0.420308 0.211757 0.612873
  C 2.654461 0.150423 0.383138
  H 3.198688 0.508886 1.231637
  C 3.156648 -0.323259 -0.779687
  C 4.530939 -0.397325 -0.952631
  C 5.288322 -0.948253 -2.287281
  C 4.730018 -1.437506 -3.511988
  C 3.229855 -1.517752 -3.734735
  C 2.917345 -2.067432 -5.123081
  H 6.354650 -0.907118 -2.162490
  H 0.263150 0.615204 1.591858
  H 0.142377 -0.818292 0.482159
  H 0.117170 0.839606 -0.205270
  H 2.482811 -0.638652 -1.556126
  H 5.227153 -0.090813 -0.193332
  H 5.184132 -2.429113 -3.680394
  H 5.194360 -0.844126 -4.318521
  H 2.787292 -0.525715 -3.641423
  H 2.777784 -2.170700 -2.987684
  H 3.335570 -1.432597 -5.900483
  H 1.842662 -2.115559 -5.275704
  H 3.316157 -3.071303 -5.247302
 22
 102.082666
  C 0.156389 0.087047 0.465425
  C 2.930358 0.224316 0.384819
  H 3.216524 0.639427 1.320351
  C 3.347796 -0.214394 -0.746429
  C 4.770142 -0.440179 -1.041719
  C 5.277370 -0.941950 -2.198518
  C 4.685809 -1.430980 -3.468192
  C 3.177139 -1.469538 -3.670717
  C 2.836363 -2.037711 -5.047828
  H 6.355705 -0.974746 -2.223490
  H 0.084734 0.498122 1.451759
  H 0.154719 -0.973854 0.326819
  H 0.061015 0.723964 -0.389044
  H 2.664541 -0.502880 -1.536402
  H 5.447795 -0.160209 -0.253774
  H 5.080253 -2.448385 -3.615609
  H 5.152397 -0.877666 -4.290442
  H 2.759818 -0.460722 -3.601412
  H 2.704989 -2.096902 -2.906581
  H 3.276797 -1.428765 -5.839084
  H 1.756793 -2.054575 -5.195798
  H 3.208018 -3.059216 -5.150640
 22
 104.810804
  C 0.024405 0.054262 0.279346
  C 3.083726 0.208750 0.431070
  H 3.192614 0.602759 1.414862
  C 3.509423 -0.227177 -0.685232
  C 4.917837 -0.458890 -1.062910
  C 5.340415 -0.931538 -2.233294
  C 4.674723 -1.403443 -3.474366
  C 3.161465 -1.456033 -3.576254
  C 2.746813 -2.016419 -4.936869
  H 6.424569 -0.983200 -2.326858
  H -0.118455 0.444118 1.265220
  H 0.048679 -1.011289 0.125055
  H 0.000784 0.716223 -0.565722
  H 2.823439 -0.500089 -1.475389
  H 5.630067 -0.173632 -0.306489
  H 5.049111 -2.416385 -3.644379
  H 5.075658 -0.837396 -4.314384
  H 2.743718 -0.445847 -3.487209
  H 2.749324 -2.105204 -2.797761
  H 3.128218 -1.395831 -5.743818
  H 1.663821 -2.052336 -5.021426
  H 3.129338 -3.023846 -5.072772
 22
 105.505415
  C -0.070069 -0.045990 0.030538
  C 3.226782 0.218561 0.474110
  H 3.117560 0.597562 1.452212
  C 3.679293 -0.210244 -0.625167
  C 5.055186 -0.454150 -1.084200
  C 5.411781 -0.932053 -2.263387
  C 4.662172 -1.401906 -3.461192
  C 3.141293 -1.404865 -3.465303
  C 2.611609 -1.961952 -4.792759
  H 6.493303 -1.022935 -2.408284
  H -0.297291 0.331656 1.003899
  H 0.031226 -1.109443 -0.120446
  H -0.016779 0.628752 -0.805154
  H 2.979402 -0.482784 -1.417256
  H 5.808649 -0.182266 -0.355990
  H 5.004581 -2.426994 -3.645601
  H 5.025267 -0.835787 -4.322298
  H 2.759393 -0.382591 -3.364570
  H 2.762072 -2.041240 -2.658481
  H 2.951157 -1.355612 -5.630942
  H 1.523550 -1.968376 -4.798593
  H 2.956683 -2.981821 -4.948062
 22
 105.613414
  C -0.151285 -0.176325 -0.203271
  C 3.350679 0.244145 0.499315
  H 3.059573 0.678117 1.419200
  C 3.827522 -0.188714 -0.582352
  C 5.169439 -0.466751 -1.096595
  C 5.466978 -0.961723 -2.286765
  C 4.640792 -1.411965 -3.443130
  C 3.120999 -1.352847 -3.358761
  C 2.492109 -1.884005 -4.649101
  H 6.529684 -1.084490 -2.480996
  H -0.461968 0.233238 0.740539
  H 0.017019 -1.230892 -0.296781
  H -0.039251 0.465921 -1.054149
  H 3.103886 -0.461959 -1.368240
  H 5.956477 -0.206108 -0.401057
  H 4.937570 -2.445669 -3.646421
  H 4.975196 -0.849253 -4.318882
  H 2.786299 -0.315670 -3.240678
  H 2.762933 -1.980618 -2.536557
  H 2.805455 -1.288676 -5.504438
  H 1.406582 -1.847598 -4.589711
  H 2.787820 -2.916274 -4.824714
 22
 105.602452
  C -0.177674 -0.362486 -0.547329
  C 3.508889 0.299003 0.552212
  H 2.982785 0.766701 1.359792
  C 3.989246 -0.151555 -0.518715
  C 5.282290 -0.483169 -1.096699
  C 5.503658 -0.995635 -2.299187
  C 4.591848 -1.417810 -3.401808
  C 3.079412 -1.281695 -3.217958
  C 2.338198 -1.784577 -4.465783
  H 6.538045 -1.151108 -2.553133
  H -0.600971 0.075539 0.330858
  H 0.069610 -1.407722 -0.557044
  H 0.025179 0.250782 -1.409359
  H 3.210420 -0.405957 -1.276777
  H 6.109212 -0.236671 -0.450400
  H 4.828456 -2.463409 -3.616520
  H 4.896353 -0.866067 -4.295726
  H 2.802765 -0.227935 -3.088457
  H 2.745140 -1.896619 -2.374287
  H 2.624323 -1.202850 -5.344637
  H 1.257444 -1.696383 -4.334653
  H 2.573990 -2.833078 -4.657383
 22
 105.136665
  C -0.152316 -0.378673 -0.568789
  C 3.501427 0.312685 0.535568
  H 2.990795 0.742586 1.356946
  C 3.989848 -0.135589 -0.532813
  C 5.280998 -0.471588 -1.101822
  C 5.508270 -1.001115 -2.304341
  C 4.590048 -1.425554 -3.398060
  C 3.083971 -1.269692 -3.207552
  C 2.327953 -1.771631 -4.440457
  H 6.548487 -1.170842 -2.554619
  H -0.607841 0.034176 0.306024
  H 0.089515 -1.419806 -0.600547
  H 0.019015 0.242488 -1.422062
  H 3.203312 -0.387273 -1.281360
  H 6.110177 -0.236290 -0.452525
  H 4.813306 -2.476980 -3.605809
  H 4.895025 -0.881929 -4.298103
  H 2.825395 -0.212510 -3.085608
  H 2.747682 -1.871823 -2.358014
  H 2.612731 -1.205012 -5.323734
  H 1.255104 -1.667315 -4.301885
  H 2.545713 -2.821011 -4.623432
