17

C 1.006771 -0.072965 0.044816
C 2.503005 -0.082499 0.026102
C 3.220933 -0.594489 -0.979023
C 4.658445 -0.604365 -0.998406
C 5.379234 -1.119297 -2.009303
C 6.817415 -1.129526 -2.029382
C 7.533279 -1.642092 -3.035643
H 8.602772913066676 -1.657029587138119 -3.0649625907853726
H 0.642896 0.39304 0.959658
H 0.612046 -1.088137 0.006068
H 0.612047 0.492571 -0.799128
H 3.001484 0.353425 0.881897
H 2.711407 -1.028378 -1.83081
H 5.162101 -0.169244 -0.144195
H 4.875032 -1.55427 -2.863228
H 7.325823 -0.695451 -1.177221
H 7.032405 -2.077888 -3.891166
