 17
 0.000000
  C 1.007337 -0.072726 0.045286
  C 2.503404 -0.082579 0.025945
  C 3.221430 -0.594181 -0.978417
  C 4.658214 -0.604600 -0.998867
  C 5.379552 -1.119638 -2.009972
  C 6.817028 -1.130460 -2.031216
  C 7.530387 -1.641529 -3.034537
  H 8.602385 -1.655442 -3.061847
  H 0.642754 0.392885 0.959354
  H 0.612897 -1.087547 0.005336
  H 0.612898 0.491632 -0.799082
  H 3.002224 0.353046 0.881153
  H 2.712325 -1.027950 -1.829969
  H 5.161943 -0.169645 -0.144981
  H 4.875343 -1.554413 -2.863507
  H 7.325353 -0.696501 -1.179281
  H 7.031621 -2.076949 -3.889324
 17
 -0.561845
  C 1.004842 -0.076170 0.064258
  C 2.495484 -0.047474 0.002409
  C 3.218508 -0.645614 -0.948302
  C 4.650664 -0.576328 -1.027271
  C 5.379504 -1.162472 -1.992546
  C 6.812974 -1.081687 -2.073177
  C 7.537235 -1.672837 -3.021637
  H 8.610246 -1.595741 -3.053967
  H 0.652550 0.111572 1.075684
  H 0.618599 -1.035718 -0.274211
  H 0.588694 0.697288 -0.583793
  H 2.997948 0.524396 0.771680
  H 2.718758 -1.218563 -1.719780
  H 5.150494 -0.005373 -0.254324
  H 4.882501 -1.733964 -2.766377
  H 7.303743 -0.502023 -1.301186
  H 7.074598 -2.255817 -3.801254
 17
 -1.155391
  C 0.993161 -0.096160 0.049586
  C 2.473828 -0.017318 -0.055525
  C 3.204701 -0.653649 -0.974625
  C 4.631324 -0.530946 -1.088121
  C 5.370883 -1.176287 -2.005711
  C 6.799050 -1.047416 -2.116939
  C 7.539268 -1.722537 -2.994294
  H 8.608373 -1.607373 -3.048948
  H 0.689858 -0.243570 1.083626
  H 0.598747 -0.910607 -0.557949
  H 0.544031 0.841423 -0.293784
  H 2.963683 0.630142 0.661705
  H 2.717540 -1.303333 -1.691052
  H 5.117188 0.130091 -0.381514
  H 4.888747 -1.841597 -2.710314
  H 7.271227 -0.359882 -1.428654
  H 7.095015 -2.414879 -3.690630
 17
 -0.310186
  C 1.033916 -0.187805 0.146965
  C 2.499462 -0.025358 -0.052044
  C 3.183287 -0.487226 -1.101288
  C 4.607978 -0.343101 -1.244702
  C 5.364184 -1.108493 -2.047457
  C 6.797596 -0.998023 -2.130767
  C 7.570787 -1.840153 -2.812126
  H 8.638979 -1.737585 -2.840092
  H 0.825717 -0.570121 1.143844
  H 0.610400 -0.866798 -0.590589
  H 0.533198 0.779476 0.056132
  H 3.025677 0.487490 0.738587
  H 2.668288 -1.032942 -1.883451
  H 5.083451 0.409793 -0.623481
  H 4.899337 -1.877377 -2.651533
  H 7.244699 -0.182973 -1.578547
  H 7.152363 -2.664999 -3.369359
 17
 2.798054
  C 1.077494 -0.299076 0.183456
  C 2.540890 -0.140989 -0.052992
  C 3.154971 -0.274726 -1.225421
  C 4.598043 -0.167683 -1.363229
  C 5.347664 -1.040456 -2.046630
  C 6.785835 -0.984040 -2.096687
  C 7.543334 -1.898953 -2.694989
  H 8.617656 -1.833956 -2.705277
  H 0.898108 -0.878584 1.087064
  H 0.594915 -0.791283 -0.657947
  H 0.612324 0.678556 0.320488
  H 3.137763 0.064237 0.827642
  H 2.590229 -0.522420 -2.115820
  H 5.078607 0.637006 -0.819418
  H 4.874944 -1.860478 -2.572284
  H 7.247315 -0.141206 -1.597223
  H 7.109504 -2.748470 -3.196593
 17
 5.726979
  C 1.178414 -0.390176 0.295924
  C 2.606495 -0.193033 -0.090466
  C 3.087809 -0.220714 -1.323977
  C 4.518928 -0.052418 -1.604193
  C 5.319915 -1.054583 -1.969689
  C 6.742360 -0.913897 -2.167866
  C 7.538761 -1.914564 -2.530108
  H 8.598773 -1.782770 -2.663041
  H 1.108630 -0.976843 1.209356
  H 0.624521 -0.892559 -0.494147
  H 0.703939 0.574384 0.483553
  H 3.295211 -0.030346 0.730067
  H 2.435883 -0.404157 -2.170009
  H 4.930929 0.938979 -1.452233
  H 4.907693 -2.045305 -2.114293
  H 7.153263 0.073194 -1.996380
  H 7.153226 -2.905557 -2.705660
 17
 5.754288
  C 1.265398 -0.460607 0.368913
  C 2.664258 -0.274749 -0.119215
  C 3.030627 -0.231755 -1.390560
  C 4.424479 -0.045187 -1.814760
  C 5.322421 -1.029941 -1.845194
  C 6.702843 -0.853413 -2.232446
  C 7.568412 -1.855148 -2.349577
  H 8.593556 -1.695111 -2.636187
  H 1.252351 -1.084580 1.259951
  H 0.642005 -0.918180 -0.396092
  H 0.828329 0.503604 0.632772
  H 3.420265 -0.150887 0.646436
  H 2.295122 -0.339871 -2.180071
  H 4.710401 0.959495 -2.106803
  H 5.023023 -2.033438 -1.569986
  H 7.018251 0.164006 -2.427954
  H 7.277073 -2.875564 -2.160974
 17
 3.718000
  C 1.314684 -0.551304 0.359841
  C 2.709202 -0.426998 -0.159498
  C 3.025524 -0.138327 -1.416204
  C 4.396189 -0.013739 -1.894824
  C 5.324571 -0.964229 -1.748626
  C 6.684901 -0.841430 -2.213310
  C 7.563452 -1.839848 -2.199370
  H 8.574257 -1.717545 -2.548742
  H 1.271985 -1.266760 1.177888
  H 0.632356 -0.867916 -0.426265
  H 0.967226 0.410480 0.740800
  H 3.503397 -0.546184 0.566093
  H 2.244327 0.032230 -2.148660
  H 4.642772 0.906224 -2.413152
  H 5.058384 -1.898877 -1.272147
  H 6.976490 0.133521 -2.583766
  H 7.296409 -2.819155 -1.836847
 17
 2.808257
  C 1.336523 -0.642883 0.321236
  C 2.726496 -0.566422 -0.224186
  C 3.049400 -0.005673 -1.389247
  C 4.402168 0.050924 -1.903200
  C 5.314978 -0.915207 -1.716050
  C 6.676171 -0.839262 -2.176385
  C 7.542378 -1.846954 -2.099912
  H 8.561650 -1.751744 -2.432666
  H 1.287699 -1.323933 1.166801
  H 0.638869 -0.980898 -0.444042
  H 1.003979 0.340121 0.657835
  H 3.516773 -0.949952 0.406659
  H 2.280448 0.457736 -1.995829
  H 4.661683 0.925433 -2.487632
  H 5.031409 -1.824534 -1.202412
  H 6.990539 0.115019 -2.581652
  H 7.254669 -2.807096 -1.703383
 17
 4.204470
  C 1.374781 -0.728439 0.294641
  C 2.744567 -0.586956 -0.287081
  C 3.053368 0.056321 -1.413630
  C 4.414183 0.120164 -1.904530
  C 5.282645 -0.893427 -1.763209
  C 6.687740 -0.828849 -2.063164
  C 7.495026 -1.887052 -2.024282
  H 8.553848 -1.805795 -2.199692
  H 1.396625 -1.331801 1.197393
  H 0.699571 -1.195406 -0.422023
  H 0.958401 0.248140 0.544152
  H 3.557059 -0.956722 0.324374
  H 2.288736 0.573277 -1.980272
  H 4.722421 1.033176 -2.398699
  H 4.919963 -1.849064 -1.407199
  H 7.098244 0.150792 -2.274458
  H 7.117207 -2.875470 -1.819065
 17
 12.478245
  C 1.551186 -0.916450 0.218780
  C 2.882775 -0.530024 -0.342873
  C 3.075266 0.228458 -1.431758
  C 4.410460 0.294198 -1.967418
  C 5.186278 -0.805385 -1.847389
  C 6.615653 -0.854565 -1.901933
  C 7.305654 -1.994396 -1.845886
  H 8.380841 -2.011396 -1.798070
  H 1.664923 -1.496201 1.130591
  H 0.996198 -1.509860 -0.506996
  H 0.947232 -0.037073 0.443461
  H 3.738686 -0.709042 0.291716
  H 2.259342 0.761681 -1.903027
  H 4.783150 1.202591 -2.421702
  H 4.697623 -1.766787 -1.757021
  H 7.150378 0.087402 -1.897079
  H 6.809518 -2.951364 -1.842250
 17
 28.123521
  C 1.801508 -1.097616 0.085666
  C 3.070770 -0.469314 -0.399139
  C 3.134202 0.447129 -1.408820
  C 4.411606 0.472190 -2.015386
  C 5.058547 -0.732818 -1.863736
  C 6.462282 -0.922609 -1.730810
  C 7.036200 -2.126505 -1.643445
  H 8.091395 -2.247348 -1.474086
  H 1.976671 -1.727311 0.950365
  H 1.353643 -1.702134 -0.706427
  H 1.069014 -0.335449 0.357218
  H 3.913947 -0.534721 0.268133
  H 2.277215 1.024342 -1.729993
  H 4.870309 1.332032 -2.478140
  H 4.488406 -1.639780 -2.011100
  H 7.073817 -0.034707 -1.620614
  H 6.455842 -3.031491 -1.731160
 17
 38.480728
  C 2.080928 -1.250499 -0.098551
  C 3.281555 -0.427974 -0.452699
  C 3.220602 0.676699 -1.338509
  C 4.416211 0.645605 -1.999987
  C 4.886757 -0.685818 -1.809855
  C 6.266128 -1.019864 -1.563584
  C 6.732028 -2.266935 -1.487433
  H 7.762493 -2.481686 -1.263194
  H 2.296994 -1.961080 0.694917
  H 1.711961 -1.797745 -0.966353
  H 1.274966 -0.592345 0.230162
  H 4.088035 -0.463730 0.261678
  H 2.349989 1.290670 -1.506424
  H 4.971428 1.441192 -2.469096
  H 4.267541 -1.504504 -2.145085
  H 6.931768 -0.185100 -1.379661
  H 6.087178 -3.116426 -1.644407
 17
 22.642377
  C 2.339185 -1.367492 -0.305657
  C 3.502915 -0.426088 -0.495368
  C 3.326828 0.866543 -1.192154
  C 4.433939 0.786632 -1.934175
  C 4.692954 -0.653854 -1.707559
  C 6.067735 -1.130680 -1.417692
  C 6.436967 -2.401380 -1.414517
  H 7.441819 -2.705205 -1.177716
  H 2.572355 -2.159860 0.402349
  H 2.040230 -1.823061 -1.249508
  H 1.485962 -0.804707 0.068720
  H 4.226655 -0.460664 0.315351
  H 2.473161 1.518667 -1.208651
  H 5.058435 1.521120 -2.409977
  H 4.083918 -1.357985 -2.267454
  H 6.777847 -0.354874 -1.159520
  H 5.741523 -3.190714 -1.652604
 17
 4.860602
  C 2.305403 -1.338351 -0.495883
  C 3.608283 -0.564762 -0.443143
  C 3.567900 0.878513 -0.881295
  C 4.416729 0.706788 -1.888569
  C 4.599091 -0.772236 -1.644553
  C 5.966691 -1.234993 -1.288646
  C 6.465564 -2.403416 -1.652807
  H 7.454567 -2.718122 -1.365939
  H 2.435617 -2.340601 -0.098934
  H 1.944680 -1.413071 -1.519765
  H 1.546951 -0.828723 0.094505
  H 4.097408 -0.711118 0.523082
  H 3.022331 1.717356 -0.490623
  H 4.859439 1.354994 -2.626144
  H 4.175827 -1.404099 -2.428669
  H 6.550697 -0.555635 -0.680421
  H 5.902946 -3.094914 -2.257695
