 17
 0.000000
  H 1.433019 -0.076850 0.037190
  C 2.506133 -0.083343 0.024445
  C 3.220474 -0.593717 -0.977505
  C 4.657472 -0.605094 -0.999840
  C 5.379041 -1.120102 -2.010884
  C 6.816268 -1.130829 -2.031941
  C 7.534478 -1.641884 -3.035235
  C 9.023399 -1.662211 -3.075131
  H 3.002808 0.351865 0.878833
  H 2.711024 -1.027372 -1.828834
  H 5.161643 -0.170388 -0.146442
  H 4.874931 -1.554855 -2.864376
  H 7.322456 -0.696516 -1.179312
  H 7.035351 -2.077814 -3.891022
  H 9.456067 -1.209183 -2.185766
  H 9.382493 -1.117460 -3.949104
  H 9.382492 -2.689446 -3.148364
 17
 12.970582
  H 1.374041 -0.045496 0.098750
  C 2.447090 -0.048859 0.092143
  C 3.200055 -0.597372 -0.984681
  C 4.631114 -0.610812 -1.011064
  C 5.350541 -1.127047 -2.024517
  C 6.786738 -1.141370 -2.052641
  C 7.493890 -1.651949 -3.054994
  C 9.151666 -1.669921 -3.090256
  H 2.949593 0.383249 0.940441
  H 2.677651 -1.026842 -1.827792
  H 5.139881 -0.177113 -0.159646
  H 4.841859 -1.560866 -2.876174
  H 7.295650 -0.707686 -1.201243
  H 7.012177 -2.089912 -3.914780
  H 9.554949 -1.213395 -2.194025
  H 9.496077 -1.122928 -3.962581
  H 9.496067 -2.697123 -3.160707
 17
 39.018603
  H 1.351699 -0.018930 0.150923
  C 2.425393 -0.016166 0.156328
  C 3.172152 -0.590966 -0.972098
  C 4.605959 -0.614357 -1.018030
  C 5.324894 -1.144176 -2.058155
  C 6.760783 -1.167500 -2.103960
  C 7.429909 -1.674946 -3.100148
  C 9.302031 -1.663278 -3.077199
  H 2.948702 0.404811 0.982775
  H 2.609642 -1.007773 -1.790348
  H 5.132061 -0.183615 -0.172422
  H 4.803093 -1.574912 -2.903740
  H 7.275959 -0.737140 -1.259095
  H 7.038960 -2.126000 -3.985643
  H 9.569355 -1.192215 -2.152437
  H 9.579382 -1.099509 -3.946093
  H 9.579370 -2.697571 -3.132068
 17
 68.272759
  H 1.353071 -0.002674 0.182842
  C 2.426134 -0.012110 0.164306
  C 3.128831 -0.578959 -0.948503
  C 4.550456 -0.613348 -1.016043
  C 5.233142 -1.138856 -2.047715
  C 6.677849 -1.171248 -2.111322
  C 7.338217 -1.688931 -3.127619
  C 9.507453 -1.665846 -3.082264
  H 2.977571 0.408567 0.990130
  H 2.551213 -0.992987 -1.761302
  H 5.089178 -0.188100 -0.181237
  H 4.697429 -1.566030 -2.886313
  H 7.205678 -0.742256 -1.269148
  H 6.992188 -2.147989 -4.028807
  H 9.726264 -1.188037 -2.144180
  H 9.735912 -1.095353 -3.964820
  H 9.735820 -2.715131 -3.139688
 17
 93.135050
  H 1.345477 0.011428 0.210481
  C 2.411410 -0.003663 0.180854
  C 3.080338 -0.558230 -0.907846
  C 4.512753 -0.606687 -1.002952
  C 5.171947 -1.138900 -2.047776
  C 6.603468 -1.184107 -2.136505
  C 7.246577 -1.705569 -3.160233
  C 9.715437 -1.668232 -3.087045
  H 2.959736 0.413504 0.999848
  H 2.492387 -0.973004 -1.722141
  H 5.075850 -0.182417 -0.170019
  H 4.620835 -1.560119 -2.874702
  H 7.138596 -0.758462 -1.300913
  H 6.937585 -2.172538 -4.076954
  H 9.863710 -1.187659 -2.143501
  H 9.897442 -1.094570 -3.976569
  H 9.897411 -2.725119 -3.146000
 17
 110.582028
  H 1.322995 0.033160 0.253132
  C 2.396754 0.007254 0.202276
  C 3.035668 -0.541210 -0.874412
  C 4.469351 -0.603438 -0.996558
  C 5.100740 -1.139983 -2.049880
  C 6.541262 -1.198996 -2.165733
  C 7.169333 -1.721663 -3.191826
  C 9.923761 -1.671234 -3.092909
  H 2.952679 0.425846 1.024049
  H 2.443960 -0.955060 -1.686889
  H 5.049792 -0.185280 -0.175646
  H 4.531377 -1.556965 -2.868531
  H 7.087460 -0.775042 -1.333423
  H 6.887827 -2.192595 -4.116333
  H 10.003677 -1.187665 -2.143514
  H 10.061964 -1.091700 -3.986943
  H 10.061925 -2.735169 -3.149786
 17
 122.131800
  H 1.318008 0.057003 0.299680
  C 2.379804 0.018137 0.223592
  C 2.990116 -0.526558 -0.845447
  C 4.424197 -0.601100 -0.991753
  C 5.033745 -1.142792 -2.055162
  C 6.477779 -1.214000 -2.195095
  C 7.096474 -1.737640 -3.223243
  C 10.131269 -1.676845 -3.103819
  H 2.949755 0.438033 1.047618
  H 2.396588 -0.937341 -1.651893
  H 5.014323 -0.191767 -0.188399
  H 4.451870 -1.553978 -2.862734
  H 7.034014 -0.792803 -1.368046
  H 6.835963 -2.200671 -4.132359
  H 10.148417 -1.186963 -2.141896
  H 10.227226 -1.098022 -3.993727
  H 10.227107 -2.736678 -3.158956
 17
 128.954413
  H 1.286855 0.080822 0.346499
  C 2.365700 0.031897 0.250633
  C 2.956582 -0.513143 -0.819100
  C 4.386335 -0.598408 -0.986504
  C 4.973853 -1.142387 -2.054410
  C 6.425805 -1.225308 -2.217396
  C 7.033231 -1.747588 -3.242869
  C 10.335829 -1.678461 -3.107297
  H 2.937690 0.443320 1.057999
  H 2.360073 -0.918119 -1.614099
  H 4.990398 -0.193722 -0.192322
  H 4.375200 -1.550741 -2.856354
  H 6.993628 -0.806856 -1.395797
  H 6.777334 -2.218439 -4.167301
  H 10.283728 -1.191374 -2.150922
  H 10.391055 -1.089338 -4.012268
  H 10.391067 -2.757321 -3.162988
 17
 132.736995
  H 1.277110 0.100799 0.386237
  C 2.347910 0.045750 0.277840
  C 2.924754 -0.503279 -0.800129
  C 4.348654 -0.594691 -0.979625
  C 4.924724 -1.144040 -2.058005
  C 6.369922 -1.232971 -2.232586
  C 6.971517 -1.756919 -3.261027
  C 10.532313 -1.684863 -3.119488
  H 2.933501 0.454972 1.081484
  H 2.312442 -0.908694 -1.595898
  H 4.962837 -0.190598 -0.186241
  H 4.315748 -1.551934 -2.858615
  H 6.950639 -0.814281 -1.410723
  H 6.716869 -2.228337 -4.186365
  H 10.422878 -1.204100 -2.175748
  H 10.553648 -1.103459 -4.014746
  H 10.553582 -2.750634 -3.175441
 17
 135.001542
  H 1.256509 0.118355 0.419978
  C 2.331682 0.055780 0.297259
  C 2.884344 -0.489725 -0.773511
  C 4.312505 -0.590920 -0.971769
  C 4.869270 -1.141509 -2.052637
  C 6.315549 -1.239671 -2.245164
  C 6.905826 -1.766586 -3.279657
  C 10.744825 -1.695776 -3.139824
  H 2.936969 0.466158 1.103133
  H 2.258500 -0.892501 -1.564380
  H 4.936371 -0.192735 -0.190048
  H 4.246175 -1.546759 -2.848602
  H 6.907876 -0.824326 -1.429512
  H 6.647756 -2.239383 -4.208036
  H 10.569886 -1.207914 -2.181646
  H 10.742136 -1.118305 -4.031626
  H 10.741959 -2.753329 -3.196922
 17
 135.556811
  H 1.253420 0.138918 0.460347
  C 2.310063 0.071627 0.328696
  C 2.854988 -0.478677 -0.751371
  C 4.276556 -0.586410 -0.962949
  C 4.824088 -1.141926 -2.053588
  C 6.262707 -1.246491 -2.258955
  C 6.844254 -1.774328 -3.295346
  C 10.937136 -1.699213 -3.147985
  H 2.912747 0.474933 1.119883
  H 2.227573 -0.877304 -1.534073
  H 4.905013 -0.192932 -0.190747
  H 4.199008 -1.540677 -2.836485
  H 6.862399 -0.834518 -1.450209
  H 6.582475 -2.246038 -4.221500
  H 10.710131 -1.230341 -2.226959
  H 10.939426 -1.117759 -4.048763
  H 10.939498 -2.769636 -3.207207
 17
 135.651620
  H 1.231344 0.158875 0.501348
  C 2.289747 0.086988 0.358952
  C 2.821722 -0.468073 -0.731296
  C 4.241466 -0.582095 -0.955519
  C 4.776384 -1.140949 -2.052406
  C 6.207731 -1.251674 -2.270267
  C 6.778729 -1.783678 -3.314181
  C 11.127542 -1.713275 -3.177355
  H 2.907376 0.488308 1.147706
  H 2.179912 -0.864500 -1.508787
  H 4.881548 -0.190000 -0.185756
  H 4.142547 -1.537553 -2.830113
  H 6.818169 -0.841963 -1.466538
  H 6.505496 -2.250010 -4.228929
  H 10.874467 -1.242213 -2.253291
  H 11.174889 -1.134118 -4.068990
  H 11.175469 -2.780256 -3.232917
 17
 135.732090
  H 1.212223 0.179653 0.542703
  C 2.273359 0.102967 0.387832
  C 2.790589 -0.455411 -0.708929
  C 4.207639 -0.578183 -0.947371
  C 4.726614 -1.138063 -2.045722
  C 6.163476 -1.257576 -2.279896
  C 6.720017 -1.792333 -3.329180
  C 11.328805 -1.728743 -3.202752
  H 2.907283 0.502161 1.176556
  H 2.134826 -0.850082 -1.482728
  H 4.856772 -0.190296 -0.185630
  H 4.081478 -1.531163 -2.817842
  H 6.788535 -0.849580 -1.478888
  H 6.436043 -2.256304 -4.239760
  H 11.054078 -1.266561 -2.294674
  H 11.419785 -1.139076 -4.099370
  H 11.419017 -2.793394 -3.251715
 17
 135.685461
  H 1.216786 0.200834 0.584395
  C 2.272844 0.117653 0.417735
  C 2.774280 -0.442425 -0.681916
  C 4.186243 -0.573068 -0.937458
  C 4.689677 -1.137568 -2.044998
  C 6.117677 -1.264958 -2.295408
  C 6.658093 -1.802378 -3.350030
  C 11.530560 -1.741934 -3.232927
  H 2.910705 0.510303 1.191364
  H 2.114921 -0.829761 -1.441000
  H 4.852164 -0.185520 -0.177146
  H 4.032627 -1.527435 -2.809993
  H 6.750133 -0.862939 -1.506784
  H 6.364310 -2.267287 -4.262101
  H 11.219895 -1.279712 -2.326114
  H 11.671213 -1.152370 -4.110143
  H 11.671395 -2.801656 -3.271508
