 9
 0.000000
  H 5.749949 -1.127790 -2.025975
  C 6.824134 -1.134072 -2.038308
  C 7.531418 -1.640094 -3.031718
  C 9.022562 -1.660017 -3.070827
  H 7.325672 -0.700201 -1.186547
  H 7.031969 -2.075969 -3.887400
  H 9.460024 -1.207063 -2.181606
  H 9.380410 -1.115902 -3.945201
  H 9.380410 -2.687204 -3.144808
 9
 3.231474
  H 5.794645 -1.117043 -2.028400
  C 6.866504 -1.134707 -2.027896
  C 7.557477 -1.633811 -3.035978
  C 9.032323 -1.682003 -3.103945
  H 7.346941 -0.704365 -1.163369
  H 7.020378 -2.061863 -3.878192
  H 9.252766 -1.226943 -2.159885
  H 9.421910 -1.091573 -3.933868
  H 9.412838 -2.696282 -3.181405
 9
 12.069159
  H 5.820293 -1.119622 -2.017614
  C 6.895175 -1.130489 -2.027384
  C 7.574613 -1.637046 -3.039108
  C 9.044351 -1.689825 -3.131805
  H 7.380701 -0.696906 -1.157365
  H 7.001522 -2.049750 -3.864644
  H 9.067064 -1.229521 -2.171180
  H 9.453542 -1.086547 -3.930434
  H 9.454624 -2.706413 -3.169410
 9
 24.525536
  H 5.838972 -1.116060 -2.008164
  C 6.911706 -1.126977 -2.019427
  C 7.587294 -1.637247 -3.034570
  C 9.068266 -1.700127 -3.148494
  H 7.388982 -0.691479 -1.148802
  H 6.980536 -2.044381 -3.848482
  H 8.924776 -1.243764 -2.199516
  H 9.486813 -1.082318 -3.932067
  H 9.479335 -2.699909 -3.159672
 9
 38.329319
  H 5.843518 -1.114301 -2.004686
  C 6.918707 -1.121885 -2.008703
  C 7.598529 -1.632315 -3.022739
  C 9.093686 -1.705194 -3.160365
  H 7.385978 -0.681610 -1.132956
  H 6.974646 -2.039537 -3.834112
  H 8.816410 -1.256139 -2.228795
  H 9.502046 -1.080270 -3.936995
  H 9.495889 -2.705528 -3.158631
 9
 51.602350
  H 5.840005 -1.113050 -2.002005
  C 6.916353 -1.114995 -1.997826
  C 7.604201 -1.627654 -3.008103
  C 9.119584 -1.707834 -3.164950
  H 7.373208 -0.671756 -1.120532
  H 6.973311 -2.033695 -3.816708
  H 8.736487 -1.273457 -2.262500
  H 9.511180 -1.078175 -3.943646
  H 9.505814 -2.711352 -3.161988
 9
 63.319701
  H 5.831779 -1.110794 -2.001082
  C 6.908192 -1.110046 -1.987434
  C 7.607300 -1.621836 -2.992962
  C 9.138697 -1.710322 -3.170405
  H 7.355918 -0.662981 -1.107778
  H 6.976663 -2.030686 -3.803723
  H 8.676124 -1.286916 -2.290654
  H 9.515106 -1.078146 -3.951853
  H 9.510355 -2.717148 -3.166805
 9
 73.364119
  H 5.822462 -1.118818 -2.000085
  C 6.898670 -1.100453 -1.982528
  C 7.609487 -1.615267 -2.981180
  C 9.155658 -1.711949 -3.172436
  H 7.336848 -0.653005 -1.098764
  H 6.977172 -2.025861 -3.791232
  H 8.628853 -1.299359 -2.314804
  H 9.515286 -1.078356 -3.958667
  H 9.506786 -2.724609 -3.172204
 9
 81.673298
  H 5.807796 -1.117750 -2.002264
  C 6.883928 -1.097457 -1.974970
  C 7.605895 -1.613666 -2.967199
  C 9.176065 -1.712182 -3.172978
  H 7.312835 -0.639867 -1.092315
  H 6.977116 -2.026306 -3.779233
  H 8.590283 -1.313302 -2.329810
  H 9.514290 -1.078257 -3.967635
  H 9.504513 -2.731851 -3.188931
 9
 89.131550
  H 5.790975 -1.120364 -2.004253
  C 6.866603 -1.089193 -1.971050
  C 7.600913 -1.604947 -2.955800
  C 9.195884 -1.709648 -3.170009
  H 7.286420 -0.637057 -1.082077
  H 6.985485 -2.029952 -3.768880
  H 8.559193 -1.320963 -2.350228
  H 9.508114 -1.084560 -3.981624
  H 9.491140 -2.738715 -3.202293
 9
 95.409668
  H 5.767788 -1.107721 -2.014880
  C 6.842908 -1.092290 -1.961150
  C 7.589705 -1.605552 -2.937737
  C 9.223890 -1.708241 -3.167224
  H 7.252752 -0.625865 -1.075552
  H 6.996341 -2.038581 -3.756904
  H 8.535222 -1.337070 -2.362824
  H 9.495140 -1.087157 -3.996967
  H 9.482457 -2.745960 -3.232453
 9
 100.783773
  H 5.738885 -1.106109 -2.024605
  C 6.813306 -1.085666 -1.956498
  C 7.576642 -1.598695 -2.918934
  C 9.259096 -1.707870 -3.165504
  H 7.211602 -0.616778 -1.067750
  H 7.017973 -2.045994 -3.746463
  H 8.518819 -1.350347 -2.377494
  H 9.476854 -1.095496 -4.018327
  H 9.462294 -2.755484 -3.267116
 9
 105.087155
  H 5.703499 -1.108594 -2.031963
  C 6.777484 -1.086498 -1.950127
  C 7.555008 -1.597768 -2.899897
  C 9.303044 -1.711635 -3.166792
  H 7.164407 -0.592890 -1.070008
  H 7.030184 -2.047391 -3.739139
  H 8.503435 -1.373312 -2.393523
  H 9.461948 -1.102211 -4.038368
  H 9.448403 -2.767035 -3.311943
 9
 108.240098
  H 5.661308 -1.101080 -2.044265
  C 6.733790 -1.076008 -1.951757
  C 7.524716 -1.589123 -2.891334
  C 9.353181 -1.712139 -3.177510
  H 7.112662 -0.599348 -1.059664
  H 7.026282 -2.061289 -3.725778
  H 8.486447 -1.386211 -2.430332
  H 9.457562 -1.116629 -4.069388
  H 9.440514 -2.774036 -3.345167
