 17
 0.000000
  C 0.990543 0.133001 0.380763
  C 2.462227 0.137020 0.394225
  C 3.184970 0.614919 1.583762
  H 2.517976 0.934364 2.376826
  C 3.125904 -0.319613 -0.740129
  C 4.511736 -0.381413 -0.895641
  C 5.114680 -0.842882 -2.045601
  H 4.563789 -1.192201 -2.910983
  O 6.399009 -0.913880 -2.230467
  H 0.561702 0.505433 1.305504
  H 0.619489 -0.877038 0.198039
  H 0.621254 0.736255 -0.450498
  H 3.837560 1.447878 1.317423
  H 3.836284 -0.171367 1.968727
  H 2.515046 -0.652589 -1.568346
  H 5.144920 -0.053768 -0.082126
  H 6.935545 -0.605743 -1.471896
 17
 -0.218546
  C 1.004498 0.081742 0.394105
  C 2.475562 0.137953 0.390493
  C 3.175809 0.653839 1.577377
  H 2.504806 1.209712 2.225154
  C 3.146106 -0.306189 -0.742886
  C 4.532930 -0.361056 -0.897453
  C 5.115533 -0.820245 -2.060020
  H 4.518464 -1.153795 -2.901623
  O 6.389704 -0.905784 -2.285094
  H 0.582111 0.347921 1.357535
  H 0.654501 -0.908608 0.101459
  H 0.609920 0.766180 -0.360148
  H 4.022520 1.281843 1.310418
  H 3.569804 -0.184911 2.156421
  H 2.542501 -0.647118 -1.573445
  H 5.172766 -0.044624 -0.085336
  H 6.957004 -0.610077 -1.544100
 17
 -0.263650
  C 1.018651 0.020310 0.426296
  C 2.488924 0.115782 0.406022
  C 3.165048 0.676935 1.584077
  H 2.553385 1.454646 2.037312
  C 3.157355 -0.296988 -0.740396
  C 4.543448 -0.362143 -0.901966
  C 5.110408 -0.787778 -2.085512
  H 4.492259 -1.078822 -2.927757
  O 6.379548 -0.884717 -2.330752
  H 0.607914 0.224883 1.409934
  H 0.684866 -0.958464 0.082696
  H 0.599233 0.741154 -0.279256
  H 4.149326 1.075867 1.361861
  H 3.278477 -0.104949 2.339273
  H 2.550663 -0.619890 -1.575886
  H 5.191817 -0.087032 -0.082133
  H 6.962592 -0.627467 -1.587534
 17
 0.335531
  C 1.040702 -0.071737 0.470933
  C 2.511363 0.070999 0.434965
  C 3.156438 0.710130 1.588548
  H 2.636029 1.639487 1.820130
  C 3.163912 -0.264850 -0.744136
  C 4.546210 -0.377676 -0.911729
  C 5.098016 -0.717450 -2.129681
  H 4.466897 -0.904429 -2.991756
  O 6.361946 -0.845554 -2.387377
  H 0.644645 0.100176 1.467380
  H 0.733366 -1.056262 0.121269
  H 0.589770 0.652726 -0.209398
  H 4.208678 0.922374 1.435117
  H 3.046569 0.077658 2.471585
  H 2.545035 -0.527437 -1.592032
  H 5.200965 -0.211248 -0.067915
  H 6.955607 -0.689254 -1.624603
 17
 3.271051
  C 1.069767 -0.209224 0.524845
  C 2.542130 0.018550 0.459797
  C 3.158258 0.791532 1.547592
  H 2.718624 1.788483 1.537200
  C 3.174680 -0.188574 -0.753443
  C 4.537089 -0.422520 -0.910657
  C 5.100926 -0.609122 -2.148441
  H 4.493242 -0.569423 -3.045986
  O 6.348945 -0.855265 -2.389262
  H 0.686595 -0.062049 1.532863
  H 0.813621 -1.214396 0.194066
  H 0.561109 0.485883 -0.143787
  H 4.231807 0.888636 1.449265
  H 2.914082 0.366194 2.518784
  H 2.545786 -0.307400 -1.625045
  H 5.159957 -0.493698 -0.030637
  H 6.916867 -0.908288 -1.596523
 17
 15.258177
  C 1.205514 -0.305125 0.494411
  C 2.696334 0.029906 0.578847
  C 2.985762 0.952265 1.677730
  H 2.334188 1.818450 1.579283
  C 3.285923 -0.080904 -0.675659
  C 4.596393 -0.484896 -0.943474
  C 5.074626 -0.587817 -2.230417
  H 4.440000 -0.358507 -3.080197
  O 6.255352 -0.998084 -2.578743
  H 0.780431 -0.169896 1.488247
  H 1.056827 -1.342784 0.209981
  H 0.695260 0.356949 -0.197011
  H 4.018994 1.297693 1.672488
  H 2.769425 0.492483 2.640387
  H 2.602902 -0.089205 -1.517128
  H 5.224948 -0.783898 -0.114845
  H 6.842951 -1.230855 -1.833582
 17
 37.271812
  C 1.372317 -0.338822 0.389799
  C 2.900832 0.177342 0.675832
  C 2.814697 1.035910 1.846857
  H 1.983764 1.726435 1.742495
  C 3.448758 0.110246 -0.590876
  C 4.681261 -0.439900 -0.977782
  C 5.004043 -0.624378 -2.298937
  H 4.338710 -0.292407 -3.090097
  O 6.055699 -1.241172 -2.755135
  H 0.930969 -0.257215 1.382408
  H 1.365780 -1.383219 0.108595
  H 0.826086 0.291137 -0.297290
  H 3.720898 1.638539 1.963833
  H 2.673771 0.446185 2.748368
  H 2.699735 0.075486 -1.380059
  H 5.328769 -0.836149 -0.204673
  H 6.666488 -1.560406 -2.064774
 17
 82.689647
  C 1.313190 -0.313057 0.151216
  C 3.147765 0.339759 0.812867
  C 2.799736 1.043658 2.011584
  H 1.862231 1.586525 1.911886
  C 3.606494 0.099068 -0.418088
  C 4.785113 -0.454929 -0.972943
  C 4.934288 -0.647219 -2.309494
  H 4.162312 -0.357154 -3.012753
  O 5.926953 -1.271676 -2.899092
  H 0.940346 -0.139665 1.149750
  H 1.325327 -1.372330 -0.047610
  H 0.788671 0.292136 -0.568770
  H 3.574675 1.783003 2.244662
  H 2.717105 0.349088 2.848800
  H 2.695566 -0.013275 -1.114312
  H 5.523790 -0.831752 -0.277908
  H 6.629518 -1.558527 -2.284565
 17
 100.461043
  C 1.363026 -0.356822 -0.137123
  C 3.283816 0.430975 0.937400
  C 2.913395 1.072337 2.148702
  H 1.970353 1.609787 2.055432
  C 3.682345 0.146662 -0.207038
  C 4.780036 -0.410903 -0.906767
  C 4.748862 -0.657904 -2.234528
  H 3.883374 -0.415227 -2.837681
  O 5.682301 -1.272942 -2.938350
  H 0.938967 -0.207951 0.836228
  H 1.415800 -1.417315 -0.351636
  H 0.864155 0.224671 -0.907707
  H 3.666220 1.824211 2.402628
  H 2.839862 0.350670 2.961495
  H 2.528811 -0.064341 -0.757419
  H 5.620792 -0.729981 -0.306330
  H 6.467349 -1.506572 -2.416765
 17
 66.075750
  C 1.309573 -0.422990 -0.317570
  C 3.437802 0.437119 1.072108
  C 3.050476 1.081612 2.270289
  H 2.112425 1.623546 2.156651
  C 3.843819 0.103666 -0.051945
  C 4.816441 -0.442717 -0.887794
  C 4.647184 -0.589877 -2.232729
  H 3.727154 -0.291174 -2.721979
  O 5.481108 -1.164669 -3.055186
  H 0.864257 -0.224837 0.641285
  H 1.325250 -1.489612 -0.494827
  H 0.805418 0.136227 -1.099539
  H 3.819937 1.807113 2.550726
  H 2.949417 0.356036 3.080590
  H 2.392060 -0.093296 -0.587013
  H 5.702251 -0.820404 -0.396112
  H 6.314739 -1.454980 -2.640581
 17
 50.344011
  C 1.244089 -0.431291 -0.521512
  C 3.602348 0.440865 1.214833
  C 3.154401 1.083715 2.386669
  H 2.181790 1.556098 2.246203
  C 4.014466 0.059994 0.115883
  C 4.866266 -0.464142 -0.833555
  C 4.533000 -0.593801 -2.164689
  H 3.550687 -0.304853 -2.525970
  O 5.283471 -1.099354 -3.085358
  H 0.730728 -0.207111 0.402656
  H 1.211537 -1.498477 -0.698363
  H 0.778860 0.107735 -1.337602
  H 3.877061 1.858844 2.658114
  H 3.104142 0.374449 3.214580
  H 2.284190 -0.117462 -0.459523
  H 5.824940 -0.812692 -0.467691
  H 6.175298 -1.376586 -2.789027
 17
 46.232110
  C 1.199093 -0.432507 -0.625018
  C 3.706737 0.452660 1.294216
  C 3.209761 1.067839 2.464161
  H 2.162173 1.351386 2.360327
  C 4.083428 0.067092 0.192169
  C 4.893390 -0.393944 -0.821930
  C 4.439371 -0.684263 -2.093643
  H 3.388872 -0.574698 -2.349446
  O 5.159488 -1.128429 -3.062939
  H 0.587764 -0.198032 0.236945
  H 1.156527 -1.495360 -0.815270
  H 0.829292 0.110878 -1.482546
  H 3.803181 1.966339 2.672385
  H 3.321590 0.398588 3.319083
  H 2.204374 -0.132981 -0.435979
  H 5.940488 -0.537548 -0.566521
  H 6.110902 -1.237615 -2.868141
 17
 44.630172
  C 1.138287 -0.362485 -0.693046
  C 3.808605 0.457504 1.345435
  C 3.309221 1.035435 2.537246
  H 2.232048 1.201947 2.481839
  C 4.115399 0.053717 0.230092
  C 4.873890 -0.385774 -0.833867
  C 4.347042 -0.774676 -2.049701
  H 3.273790 -0.764464 -2.222242
  O 5.027538 -1.183136 -3.061033
  H 0.443192 -0.084956 0.096226
  H 1.032485 -1.416212 -0.906294
  H 0.912161 0.210844 -1.579161
  H 3.818824 1.992440 2.720580
  H 3.523306 0.383247 3.386808
  H 2.125978 -0.149205 -0.360725
  H 5.951065 -0.412857 -0.671928
  H 5.994584 -1.193528 -2.952612
 17
 45.002963
  C 1.125095 -0.356535 -0.753352
  C 3.855662 0.518787 1.363768
  C 3.376104 1.036509 2.579761
  H 2.288355 1.118265 2.575292
  C 4.078075 0.081986 0.235445
  C 4.826600 -0.339411 -0.837180
  C 4.302782 -0.853138 -2.012003
  H 3.232381 -0.970861 -2.145528
  O 4.991682 -1.230324 -3.028927
  H 0.361680 -0.050937 -0.049722
  H 0.995602 -1.408216 -0.976698
  H 1.020313 0.227418 -1.661292
  H 3.812762 2.020051 2.758230
  H 3.674011 0.382629 3.402545
  H 2.117723 -0.200916 -0.308963
  H 5.900333 -0.236157 -0.725843
  H 5.968256 -1.131308 -2.947914
 17
 54.367598
  C 1.237906 -0.353655 -0.805132
  C 3.811148 0.533539 1.363655
  C 3.443149 1.035486 2.609381
  H 2.356263 1.122021 2.681503
  C 3.838311 0.070802 0.215157
  C 4.640310 -0.331618 -0.837647
  C 4.209150 -0.905528 -2.004880
  H 3.164909 -1.116337 -2.186194
  O 4.967724 -1.238245 -2.995200
  H 0.426638 -0.032060 -0.159321
  H 1.121699 -1.406454 -1.030887
  H 1.232650 0.241196 -1.723974
  H 3.867429 2.027127 2.753343
  H 3.771588 0.361596 3.400586
  H 2.204748 -0.211227 -0.244986
  H 5.696362 -0.137842 -0.697778
  H 5.937428 -1.050961 -2.870006
