 17
 0.000000
  C 1.008542 -0.072266 0.046682
  C 2.504924 -0.081371 0.026027
  C 3.220361 -0.593691 -0.979705
  C 4.657110 -0.605646 -1.002117
  C 5.377694 -1.121039 -2.013908
  C 6.815214 -1.131821 -2.033891
  C 7.530192 -1.641673 -3.034808
  H 8.603097 -1.654339 -3.058815
  H 0.646182 0.393864 0.961323
  H 0.613393 -1.087527 0.009419
  H 0.611696 0.490841 -0.797181
  H 3.004465 0.353092 0.881137
  H 2.709413 -1.026531 -1.830392
  H 5.161997 -0.171372 -0.148684
  H 4.873564 -1.555392 -2.867501
  H 7.321593 -0.697767 -1.180876
  H 7.034398 -2.077165 -3.890627
 17
 5.533320
  C 1.017636 -0.034318 0.057923
  C 2.470835 -0.061857 0.021169
  C 3.188770 -0.568311 -0.984961
  C 4.634797 -0.608661 -1.002165
  C 5.369855 -1.120098 -2.023280
  C 6.798559 -1.152040 -2.035817
  C 7.516230 -1.649554 -3.029611
  H 8.591997 -1.659694 -3.010018
  H 0.603546 0.385249 0.977862
  H 0.904275 -1.093423 0.018938
  H 0.556174 0.439187 -0.819618
  H 3.009957 0.362931 0.857676
  H 2.676692 -0.987621 -1.846361
  H 5.142336 -0.194400 -0.134083
  H 4.869670 -1.531920 -2.889154
  H 7.293680 -0.737903 -1.167391
  H 7.049168 -2.067272 -3.904739
 17
 17.732767
  C 1.008276 -0.013783 0.061665
  C 2.457570 -0.047458 0.017867
  C 3.184875 -0.553352 -1.008296
  C 4.613684 -0.615400 -1.011849
  C 5.345246 -1.109482 -2.024573
  C 6.781733 -1.165333 -2.019633
  C 7.512306 -1.653789 -3.021167
  H 8.588507 -1.679298 -2.981294
  H 0.572072 0.388656 0.963009
  H 1.146285 -1.075899 0.063842
  H 0.512669 0.355153 -0.825830
  H 3.023756 0.383759 0.842788
  H 2.676834 -0.952220 -1.875602
  H 5.116405 -0.231474 -0.134719
  H 4.848066 -1.491734 -2.905956
  H 7.270333 -0.780119 -1.135398
  H 7.052553 -2.045312 -3.917489
 17
 31.120335
  C 0.981350 0.014072 0.071885
  C 2.439647 -0.057040 0.005896
  C 3.175785 -0.555661 -1.034831
  C 4.606734 -0.632776 -1.021091
  C 5.350304 -1.111708 -2.037525
  C 6.780433 -1.177320 -2.013732
  C 7.521648 -1.648624 -3.014657
  H 8.598627 -1.685431 -2.965251
  H 0.558652 0.448576 0.959492
  H 1.303206 -1.020908 0.154005
  H 0.451101 0.270453 -0.829723
  H 3.011984 0.360813 0.836879
  H 2.670783 -0.931898 -1.915756
  H 5.102977 -0.270934 -0.128038
  H 4.863246 -1.468955 -2.933182
  H 7.259763 -0.815571 -1.115473
  H 7.067200 -2.017552 -3.929060
 17
 41.464679
  C 0.976466 0.033257 0.076111
  C 2.434517 -0.071614 -0.004858
  C 3.171970 -0.552073 -1.056367
  C 4.590737 -0.641374 -1.033027
  C 5.343237 -1.105146 -2.051218
  C 6.775512 -1.188127 -2.008633
  C 7.528616 -1.645988 -3.008426
  H 8.600316 -1.693102 -2.940675
  H 0.562246 0.526604 0.939145
  H 1.441810 -0.966694 0.254727
  H 0.414071 0.156565 -0.837668
  H 2.998514 0.319143 0.834338
  H 2.667155 -0.900012 -1.951317
  H 5.083174 -0.305058 -0.123680
  H 4.861834 -1.439328 -2.962746
  H 7.246987 -0.849951 -1.092461
  H 7.088659 -1.990126 -3.934468
 17
 49.716693
  C 0.971169 0.053539 0.076298
  C 2.428391 -0.087212 -0.007677
  C 3.165784 -0.556525 -1.064619
  C 4.584193 -0.652753 -1.036680
  C 5.344296 -1.107871 -2.057839
  C 6.767291 -1.192125 -2.006393
  C 7.529972 -1.640892 -3.005166
  H 8.607895 -1.690708 -2.924850
  H 0.571360 0.558880 0.919269
  H 1.542925 -0.925066 0.296687
  H 0.385556 0.108389 -0.841648
  H 2.999160 0.296191 0.850361
  H 2.668288 -0.889843 -1.961229
  H 5.070133 -0.331157 -0.130438
  H 4.866965 -1.431506 -2.977531
  H 7.232148 -0.864680 -1.082844
  H 7.102122 -1.972817 -3.929664
 17
 55.570201
  C 0.961262 0.075671 0.065979
  C 2.420195 -0.099279 -0.003112
  C 3.164857 -0.561558 -1.070928
  C 4.583258 -0.663007 -1.039008
  C 5.348768 -1.111325 -2.061981
  C 6.775204 -1.197215 -2.004998
  C 7.541853 -1.637783 -3.002288
  H 8.612174 -1.687686 -2.916825
  H 0.544835 0.600884 0.923371
  H 1.616598 -0.900926 0.324113
  H 0.387577 0.066850 -0.828896
  H 2.981678 0.276987 0.851108
  H 2.662944 -0.884159 -1.973747
  H 5.072056 -0.347884 -0.122945
  H 4.876594 -1.424456 -2.981073
  H 7.236359 -0.877530 -1.077416
  H 7.113454 -1.965408 -3.943539
 17
 59.565375
  C 0.963550 0.112066 0.051263
  C 2.421648 -0.112912 0.023255
  C 3.176469 -0.560470 -1.070502
  C 4.580541 -0.670151 -1.036436
  C 5.346730 -1.109797 -2.062491
  C 6.776946 -1.202777 -2.003787
  C 7.546769 -1.635816 -3.004733
  H 8.618632 -1.690706 -2.918414
  H 0.525192 0.630750 0.883100
  H 1.679540 -0.894481 0.374995
  H 0.385612 0.004178 -0.841773
  H 2.980849 0.271375 0.866999
  H 2.659585 -0.865591 -1.977109
  H 5.072652 -0.368141 -0.112613
  H 4.874053 -1.409399 -2.984383
  H 7.235377 -0.897096 -1.076904
  H 7.122225 -1.949232 -3.945748
 17
 63.246993
  C 0.971625 0.136633 0.032549
  C 2.425430 -0.124993 0.047185
  C 3.184387 -0.563745 -1.057101
  C 4.581761 -0.673443 -1.027545
  C 5.348382 -1.109887 -2.059116
  C 6.772634 -1.203980 -2.001103
  C 7.543465 -1.633540 -3.005649
  H 8.614840 -1.687024 -2.918157
  H 0.512734 0.643403 0.855462
  H 1.739912 -0.904460 0.390646
  H 0.404592 -0.016509 -0.866286
  H 2.979772 0.269752 0.886558
  H 2.661760 -0.863453 -1.964335
  H 5.072702 -0.380218 -0.112573
  H 4.867973 -1.408690 -2.992377
  H 7.233607 -0.901071 -1.069035
  H 7.120036 -1.942047 -3.947949
 17
 64.369747
  C 0.976181 0.188057 0.009824
  C 2.416599 -0.138050 0.063274
  C 3.186922 -0.569279 -1.058921
  C 4.581535 -0.687266 -1.023633
  C 5.353229 -1.119378 -2.059206
  C 6.775302 -1.204538 -2.002146
  C 7.548976 -1.627060 -3.008578
  H 8.617317 -1.684037 -2.919431
  H 0.496311 0.657052 0.843254
  H 1.794652 -0.950937 0.417463
  H 0.405380 -0.022653 -0.872779
  H 2.979204 0.283181 0.892554
  H 2.662125 -0.864007 -1.957445
  H 5.074650 -0.395015 -0.108006
  H 4.877965 -1.408970 -2.985167
  H 7.235709 -0.905685 -1.068176
  H 7.126623 -1.933480 -3.951428
 17
 64.022187
  C 0.990004 0.229831 -0.013553
  C 2.412380 -0.150868 0.080392
  C 3.193230 -0.566917 -1.055733
  C 4.578335 -0.680210 -1.020676
  C 5.352864 -1.113766 -2.059533
  C 6.773375 -1.207735 -1.998579
  C 7.548004 -1.632083 -3.005127
  H 8.617912 -1.684928 -2.916141
  H 0.489763 0.654130 0.831760
  H 1.866796 -1.009262 0.438195
  H 0.418951 -0.026944 -0.886149
  H 2.972513 0.292873 0.897282
  H 2.663900 -0.861712 -1.955170
  H 5.073784 -0.398359 -0.102263
  H 4.875338 -1.403455 -2.985484
  H 7.235253 -0.911441 -1.062171
  H 7.125643 -1.937686 -3.949704
 17
 62.353332
  C 1.005343 0.273693 -0.036988
  C 2.402335 -0.163535 0.093613
  C 3.197439 -0.579270 -1.053120
  C 4.572719 -0.698129 -1.012117
  C 5.352129 -1.125396 -2.055521
  C 6.770604 -1.209101 -1.995204
  C 7.549164 -1.623712 -3.005392
  H 8.619318 -1.676877 -2.912397
  H 0.492870 0.667253 0.815214
  H 1.947000 -1.071237 0.467759
  H 0.431804 -0.014785 -0.898007
  H 2.964219 0.307014 0.894818
  H 2.666351 -0.870121 -1.952059
  H 5.070004 -0.418553 -0.093255
  H 4.874029 -1.408060 -2.985295
  H 7.231703 -0.917779 -1.055693
  H 7.129612 -1.924947 -3.951497
 17
 60.843906
  C 1.019046 0.292676 -0.049439
  C 2.395388 -0.182638 0.102014
  C 3.199788 -0.577114 -1.051990
  C 4.570552 -0.689224 -1.009909
  C 5.353699 -1.115462 -2.056418
  C 6.769372 -1.207339 -1.991630
  C 7.549206 -1.627524 -3.000511
  H 8.618918 -1.686047 -2.904113
  H 0.497481 0.660569 0.810013
  H 2.037275 -1.126854 0.477107
  H 0.444491 0.001624 -0.909440
  H 2.956888 0.305101 0.892697
  H 2.668688 -0.865177 -1.951613
  H 5.068010 -0.425152 -0.085433
  H 4.874627 -1.399377 -2.985702
  H 7.229753 -0.924147 -1.049672
  H 7.129410 -1.939827 -3.941972
