 11
 0.000000
  H -1.330952 -0.497179 0.653348
  C -0.876863 0.270490 0.037341
  H -1.211202 0.135775 -0.998081
  C -1.173881 1.630118 0.542621
  H -2.119060 1.932394 0.949243
  O -0.409646 2.688869 0.105350
  H 0.206929 0.127435 0.045894
  H 0.334626 2.335190 -0.395798
  O 2.400894 -0.324368 -0.337278
  H 2.833234 0.246894 0.301506
  H 3.034487 -0.516841 -1.030661
 11
 -0.383020
  H -1.336747 -0.482247 0.662263
  C -0.862435 0.264476 0.031231
  H -1.234526 0.120791 -0.993804
  C -1.134407 1.624771 0.543636
  H -2.087532 1.922528 0.938585
  O -0.389193 2.688617 0.091542
  H 0.214085 0.087678 0.012697
  H 0.376009 2.336862 -0.378972
  O 2.354254 -0.255316 -0.352416
  H 2.804546 0.238026 0.337238
  H 3.004659 -0.469488 -1.024074
 11
 -0.660688
  H -1.376903 -0.483784 0.668019
  C -0.885552 0.249705 0.032864
  H -1.266292 0.113215 -0.989259
  C -1.120620 1.617114 0.543644
  H -2.070341 1.941300 0.929246
  O -0.348394 2.658858 0.083647
  H 0.186396 0.048917 0.012792
  H 0.418322 2.282533 -0.366905
  O 2.348397 -0.182465 -0.375718
  H 2.803214 0.224404 0.366328
  H 3.012762 -0.405002 -1.030112
 11
 -0.778232
  H -1.436250 -0.491657 0.628716
  C -0.907722 0.231678 0.010126
  H -1.288225 0.136850 -1.017918
  C -1.078861 1.598060 0.550539
  H -1.966791 1.931610 1.047845
  O -0.312746 2.628197 0.061034
  H 0.153706 -0.023410 -0.009628
  H 0.403986 2.240825 -0.456580
  O 2.337315 -0.138288 -0.366187
  H 2.746122 0.241560 0.415289
  H 3.040064 -0.329612 -0.990456
 11
 -0.359463
  H -1.464261 -0.483009 0.556314
  C -0.902204 0.239513 -0.028582
  H -1.257338 0.190769 -1.067376
  C -1.054553 1.592833 0.545625
  H -1.750381 1.857854 1.315731
  O -0.408487 2.668476 -0.013105
  H 0.151335 -0.057840 -0.036591
  H 0.182364 2.334262 -0.698829
  O 2.368667 -0.158331 -0.325405
  H 2.708399 0.169872 0.510144
  H 3.125179 -0.336380 -0.888683
 11
 0.060729
  H -1.429190 -0.484897 0.448655
  C -0.854119 0.273612 -0.073645
  H -1.155664 0.278845 -1.126540
  C -1.062465 1.594312 0.553004
  H -1.566152 1.757690 1.482617
  O -0.549688 2.739212 -0.010253
  H 0.203095 -0.017123 -0.045530
  H -0.091393 2.493256 -0.821661
  O 2.369138 -0.232523 -0.291872
  H 2.679954 0.020204 0.580597
  H 3.145780 -0.415665 -0.824979
 11
 0.174244
  H -1.392598 -0.478511 0.409745
  C -0.823103 0.304414 -0.089445
  H -1.086906 0.314712 -1.146501
  C -1.096731 1.615707 0.540704
  H -1.487760 1.741746 1.527956
  O -0.672216 2.790170 -0.037595
  H 0.241048 0.041107 -0.031006
  H -0.266344 2.578794 -0.884189
  O 2.397108 -0.292496 -0.265473
  H 2.700801 -0.094097 0.622778
  H 3.172415 -0.518562 -0.785051
 11
 0.959993
  H -1.343184 -0.488899 0.342795
  C -0.791425 0.324715 -0.118489
  H -1.001684 0.368950 -1.190500
  C -1.100491 1.604929 0.549600
  H -1.461055 1.687468 1.556385
  O -0.724496 2.809414 0.002157
  H 0.279821 0.084279 -0.037431
  H -0.296215 2.637290 -0.843669
  O 2.304458 -0.286535 -0.267529
  H 2.593921 -0.158296 0.638112
  H 3.087213 -0.538219 -0.768001
 11
 4.451981
  H -1.220512 -0.502758 0.376425
  C -0.717140 0.324571 -0.107418
  H -0.904743 0.354721 -1.183299
  C -1.005478 1.618254 0.533984
  H -1.325291 1.719815 1.551949
  O -0.670796 2.809171 -0.064967
  H 0.358069 0.087792 -0.046788
  H -0.360610 2.615799 -0.957107
  O 2.146838 -0.311591 -0.233545
  H 2.430052 -0.148526 0.672021
  H 2.961856 -0.573515 -0.684766
 11
 33.863376
  H -1.096850 -0.557903 0.364596
  C -0.737864 0.313939 -0.187084
  H -0.790040 0.320745 -1.277770
  C -0.901024 1.564764 0.517816
  H -1.044488 1.623358 1.595315
  O -0.589562 2.799370 -0.001187
  H 0.434910 0.078214 -0.126243
  H -0.347774 2.611808 -0.903641
  O 1.830178 -0.190331 -0.179338
  H 2.133762 -0.099328 0.694947
  H 2.816291 -0.483422 -0.644895
 11
 54.094353
  H -1.169438 -0.501458 0.380798
  C -0.786790 0.375348 -0.116857
  H -0.858843 0.357729 -1.197578
  C -0.942683 1.578521 0.522157
  H -1.142249 1.661653 1.578969
  O -0.710173 2.783739 -0.039845
  H 0.603548 0.016403 -0.106114
  H -0.487610 2.671766 -0.973951
  O 1.729483 -0.206734 -0.147522
  H 2.057445 -0.070627 0.746323
  H 3.079946 -0.643453 -0.743761
 11
 51.138257
  H -1.199762 -0.485011 0.420970
  C -0.847924 0.386258 -0.095729
  H -0.911047 0.332750 -1.170638
  C -0.966795 1.582748 0.516375
  H -1.170700 1.685594 1.570404
  O -0.709423 2.772387 -0.051306
  H 0.693662 -0.011460 -0.107161
  H -0.485998 2.652109 -0.982993
  O 1.729523 -0.185894 -0.138071
  H 2.064718 -0.034034 0.747634
  H 3.243353 -0.684242 -0.818904
 11
 46.808369
  H -1.299706 -0.479055 0.436624
  C -0.936825 0.385741 -0.089576
  H -0.913559 0.313761 -1.166273
  C -0.958685 1.573575 0.516596
  H -1.166355 1.687187 1.571680
  O -0.632685 2.749856 -0.043665
  H 0.773619 -0.065069 -0.092303
  H -0.414779 2.625977 -0.977868
  O 1.754354 -0.168669 -0.124703
  H 2.094016 0.009101 0.754829
  H 3.432161 -0.666699 -0.937291
 11
 44.721461
  H -1.234248 -0.461176 0.886098
  C -0.986929 0.240696 0.111407
  H -0.901586 -0.153361 -0.889433
  C -1.078021 1.546800 0.338794
  H -1.283615 1.955849 1.318434
  O -0.857356 2.523794 -0.558310
  H 0.923435 0.024160 0.115251
  H -0.646194 2.142198 -1.421383
  O 1.892673 0.062554 0.027577
  H 2.238019 0.541671 0.782760
  H 3.695479 -0.476596 -0.866366
 11
 43.996623
  H -1.386494 -0.464732 0.891627
  C -1.071679 0.220526 0.129227
  H -0.879115 -0.188353 -0.850958
  C -1.098030 1.530185 0.342547
  H -1.391380 1.961014 1.288814
  O -0.746837 2.486616 -0.536458
  H 0.942934 0.053918 0.163154
  H -0.475411 2.086114 -1.373933
  O 1.902843 0.117147 0.038857
  H 2.268673 0.605858 0.777994
  H 3.696153 -0.461702 -1.026042
