 16
 0.000000
  C 0.931814 0.052144 0.211592
  C 2.414404 0.063899 0.003276
  H 3.013474 0.013131 0.903014
  C 3.044892 0.130384 -1.174976
  C 2.313702 0.204374 -2.486272
  H 1.239731 0.195865 -2.335479
  C 4.500908 0.132003 -1.203621
  C 5.263185 0.193260 -2.289312
  H 6.338344 0.189246 -2.218156
  H 0.698672 -0.007661 1.271404
  H 0.474064 -0.802424 -0.287115
  H 0.474064 0.957392 -0.187811
  H 2.586504 -0.641712 -3.115324
  H 2.586511 1.115867 -3.016160
  H 4.975345 0.077118 -0.230917
  H 4.856937 0.249390 -3.284097
 16
 13.506429
  C 0.793023 0.048947 0.268235
  C 2.445987 0.060927 0.055948
  H 3.035014 0.010187 0.955201
  C 3.103002 0.132417 -1.210991
  C 2.347603 0.205227 -2.501370
  H 1.277111 0.195474 -2.328516
  C 4.552582 0.134040 -1.239737
  C 5.311281 0.195672 -2.332056
  H 6.386342 0.191973 -2.266492
  H 0.571429 -0.010799 1.327012
  H 0.359386 -0.807654 -0.238431
  H 0.359386 0.957112 -0.138847
  H 2.608014 -0.641376 -3.135803
  H 2.608018 1.117833 -3.036545
  H 5.031715 0.079294 -0.269476
  H 4.899300 0.251693 -3.324905
