 17
 0.000000
  H 1.487372 0.050297 0.244333
  C 2.565822 0.053956 0.179486
  C 3.288945 -0.020160 1.493057
  C 2.345846 -0.087617 2.688409
  H 2.909180 -0.139980 3.616428
  C 3.161003 0.121142 -1.011176
  H 2.594405 0.173004 -1.930321
  C 4.591309 0.132364 -1.209974
  C 5.172093 0.199990 -2.408620
  O 6.508316 0.212650 -2.632956
  H 3.935714 0.856489 1.603357
  H 3.935717 -0.903649 1.504038
  H 1.707994 -0.967064 2.622554
  H 1.707983 0.793649 2.721910
  H 5.226531 0.082954 -0.334255
  H 4.628135 0.252551 -3.340171
  H 6.979310 0.165132 -1.790726
 17
 13.176113
  H 1.435237 0.053165 0.193481
  C 2.508986 0.056122 0.141106
  C 3.305391 -0.026820 1.611090
  C 2.326110 -0.092133 2.768418
  H 2.863308 -0.145430 3.712983
  C 3.173217 0.126866 -1.112594
  H 2.602463 0.178507 -2.027824
  C 4.601124 0.136162 -1.277278
  C 5.202595 0.203441 -2.469765
  O 6.541189 0.215066 -2.675814
  H 3.945213 0.850343 1.713128
  H 3.945215 -0.909886 1.613802
  H 1.689391 -0.970675 2.684398
  H 1.689379 0.790279 2.783766
  H 5.214878 0.085924 -0.386887
  H 4.667408 0.256305 -3.406689
  H 7.001456 0.167211 -1.827611
