 26
 0.000000
  C 0.904789 0.048698 0.272679
  C 2.396425 0.059152 0.087369
  C 3.242065 -0.012185 1.351721
  C 2.525129 -0.088052 2.696132
  H 3.245981 -0.133646 3.504219
  C 2.992916 0.127313 -1.120577
  C 2.354742 0.204841 -2.494538
  C 0.844283 0.217115 -2.711983
  H 0.628537 0.277005 -3.773388
  C 4.451957 0.132260 -1.208178
  C 5.192820 0.194792 -2.316493
  O 6.552440 0.195571 -2.330236
  H 0.610383 -0.010105 1.314740
  H 0.460187 -0.815440 -0.214034
  H 0.460186 0.962104 -0.113732
  H 3.888291 0.871279 1.381074
  H 3.888295 -0.893345 1.281501
  H 1.897240 -0.976360 2.748824
  H 1.897229 0.788689 2.848424
  H 2.746096 -0.643533 -3.066589
  H 2.746097 1.112187 -2.967517
  H 0.385656 1.076164 -2.231132
  H 0.385657 -0.690575 -2.330826
  H 4.997976 0.079722 -0.277072
  H 4.816214 0.251655 -3.324186
  H 6.882318 0.144420 -1.423688
 26
 12.053120
  C 0.860069 0.048482 0.276511
  C 2.336617 0.060174 0.069268
  C 3.294547 -0.018716 1.467447
  C 2.544934 -0.093100 2.785605
  H 3.257297 -0.139355 3.605393
  C 2.991318 0.132135 -1.206024
  C 2.354145 0.209285 -2.573285
  C 0.841699 0.220097 -2.764841
  H 0.620147 0.280078 -3.827847
  C 4.443128 0.135019 -1.257082
  C 5.211106 0.196699 -2.350278
  O 6.570905 0.195633 -2.331327
  H 0.599717 -0.010858 1.328096
  H 0.405112 -0.813453 -0.206941
  H 0.405114 0.959333 -0.106905
  H 3.933122 0.865206 1.481590
  H 3.933128 -0.898619 1.382064
  H 1.917050 -0.981258 2.830769
  H 1.917041 0.784335 2.930399
  H 2.744701 -0.638860 -3.146304
  H 2.744704 1.116511 -3.047254
  H 0.385897 1.078896 -2.281383
  H 0.385893 -0.687641 -2.381062
  H 4.964130 0.081722 -0.312495
  H 4.855984 0.254025 -3.366213
  H 6.880443 0.144075 -1.417540
 26
 36.335965
  C 0.824309 0.049461 0.259070
  C 2.273698 0.065015 -0.016563
  C 3.396069 -0.025423 1.586385
  C 2.585519 -0.096910 2.853281
  H 3.258598 -0.144628 3.699137
  C 2.968472 0.135652 -1.268408
  C 2.347787 0.213042 -2.639925
  C 0.837674 0.223203 -2.819910
  H 0.616872 0.282589 -3.872374
  C 4.407852 0.135581 -1.267127
  C 5.204329 0.196548 -2.347635
  O 6.561507 0.193889 -2.300332
  H 0.631955 -0.010861 1.328089
  H 0.344275 -0.811245 -0.207101
  H 0.344267 0.957155 -0.107322
  H 4.010539 0.868729 1.560344
  H 4.010615 -0.911040 1.459923
  H 1.957172 -0.986881 2.875297
  H 1.957144 0.784930 2.975271
  H 2.744860 -0.634941 -3.209354
  H 2.744880 1.119726 -3.110364
  H 0.383366 1.083989 -2.336724
  H 0.383368 -0.686455 -2.436631
  H 4.891687 0.081512 -0.308829
  H 4.865197 0.254307 -3.371199
  H 6.850273 0.142114 -1.382689
 26
 61.465746
  C 0.803066 0.052847 0.199039
  C 2.238690 0.071414 -0.130007
  C 3.525233 -0.033137 1.722923
  C 2.643844 -0.101510 2.934613
  H 3.271206 -0.152164 3.832584
  C 2.938876 0.139359 -1.334088
  C 2.325013 0.217171 -2.712947
  C 0.812053 0.226290 -2.874298
  H 0.572892 0.286306 -3.937948
  C 4.376876 0.137219 -1.296245
  C 5.178601 0.194979 -2.319916
  O 6.534751 0.189926 -2.230147
  H 0.650794 -0.007955 1.276550
  H 0.308285 -0.807941 -0.251100
  H 0.308289 0.958814 -0.151403
  H 4.117513 0.871721 1.676123
  H 4.117524 -0.926941 1.574672
  H 2.014290 -0.989473 2.920788
  H 2.014267 0.782351 3.020744
  H 2.719305 -0.630438 -3.282275
  H 2.719301 1.123422 -3.183292
  H 0.364977 1.085912 -2.384713
  H 0.364953 -0.682977 -2.484523
  H 4.826638 0.082235 -0.321784
  H 4.868867 0.253166 -3.350954
  H 6.797797 0.137047 -1.292920
 26
 81.786675
  C 0.769254 0.055419 0.153158
  C 2.190595 0.076102 -0.213263
  C 3.633590 -0.042143 1.882424
  C 2.689108 -0.107439 3.039945
  H 3.267020 -0.160527 3.981034
  C 2.895537 0.142021 -1.381325
  C 2.302518 0.220440 -2.770876
  C 0.793518 0.230184 -2.943139
  H 0.562157 0.290643 -4.014399
  C 4.338696 0.138201 -1.313687
  C 5.181938 0.196515 -2.346959
  O 6.547676 0.190111 -2.233484
  H 0.654834 -0.006027 1.242002
  H 0.263167 -0.806880 -0.279401
  H 0.263162 0.960898 -0.179640
  H 4.209334 0.867388 1.815154
  H 4.209340 -0.938255 1.713246
  H 2.058028 -0.993080 2.989476
  H 2.058056 0.778240 3.089394
  H 2.703652 -0.628176 -3.329290
  H 2.703656 1.126467 -3.230266
  H 0.344227 1.087546 -2.458192
  H 0.344164 -0.676335 -2.557701
  H 4.762683 0.082672 -0.329711
  H 4.889140 0.255369 -3.389809
  H 6.798039 0.136250 -1.279080
 26
 93.560319
  C 0.755059 0.053938 0.180230
  C 2.120230 0.081204 -0.303170
  C 3.728036 -0.049296 2.009138
  C 2.705407 -0.109387 3.074053
  H 3.175855 -0.165221 4.062602
  C 2.863640 0.144953 -1.433101
  C 2.313728 0.224392 -2.841325
  C 0.803143 0.232741 -2.989290
  H 0.545328 0.292616 -4.050626
  C 4.316920 0.139781 -1.341200
  C 5.180900 0.197000 -2.355517
  O 6.536605 0.189204 -2.216942
  H 0.740070 -0.007426 1.267732
  H 0.216366 -0.818448 -0.203474
  H 0.216389 0.963950 -0.102893
  H 4.273339 0.867221 1.899555
  H 4.273225 -0.947680 1.797035
  H 2.075013 -0.995780 2.965445
  H 2.075086 0.783661 3.065911
  H 2.719741 -0.628472 -3.391575
  H 2.719752 1.133752 -3.292179
  H 0.366869 1.086759 -2.489604
  H 0.366849 -0.672070 -2.588811
  H 4.702066 0.082912 -0.332795
  H 4.908163 0.255806 -3.398175
  H 6.761460 0.136392 -1.280415
 26
 101.673097
  C 0.726986 0.054660 0.164321
  C 2.067114 0.085786 -0.385976
  C 3.863228 -0.056513 2.140323
  C 2.760670 -0.111720 3.115735
  H 3.137641 -0.169536 4.146975
  C 2.825891 0.147420 -1.477528
  C 2.303397 0.228379 -2.910403
  C 0.781183 0.237111 -3.063286
  H 0.517910 0.297213 -4.127114
  C 4.268438 0.139579 -1.340139
  C 5.161959 0.195439 -2.329038
  O 6.513745 0.185340 -2.151917
  H 0.767106 -0.007139 1.259577
  H 0.173180 -0.815863 -0.189068
  H 0.173063 0.959342 -0.088908
  H 4.398689 0.869964 2.023110
  H 4.399410 -0.963670 1.920627
  H 2.141663 -0.991109 2.955504
  H 2.140940 0.779536 3.055073
  H 2.715789 -0.630354 -3.457599
  H 2.715873 1.143177 -3.357416
  H 0.345982 1.091665 -2.559186
  H 0.345903 -0.668646 -2.658639
  H 4.617208 0.081578 -0.315135
  H 4.917814 0.254588 -3.374587
  H 6.711384 0.131947 -1.208102
 26
 106.425569
  C 0.682027 0.055798 0.142296
  C 2.000617 0.090019 -0.462615
  C 3.994898 -0.063067 2.255922
  C 2.816359 -0.112998 3.138687
  H 3.102743 -0.172400 4.203530
  C 2.783511 0.149910 -1.522533
  C 2.288636 0.231357 -2.962170
  C 0.770207 0.240076 -3.113881
  H 0.505183 0.299862 -4.170850
  C 4.232807 0.139601 -1.342060
  C 5.153932 0.193914 -2.302382
  O 6.502497 0.181548 -2.085361
  H 0.770118 -0.005916 1.235396
  H 0.114641 -0.816696 -0.186814
  H 0.114517 0.959727 -0.086521
  H 4.528469 0.865582 2.149968
  H 4.529713 -0.973465 2.047663
  H 2.207829 -0.990256 2.927088
  H 2.206911 0.781796 3.026195
  H 2.702285 -0.623344 -3.501862
  H 2.702405 1.141299 -3.402056
  H 0.335825 1.096015 -2.604871
  H 0.335667 -0.667674 -2.704591
  H 4.549919 0.080935 -0.306367
  H 4.938494 0.253642 -3.356760
  H 6.671300 0.128289 -1.144968
 26
 109.131073
  C 0.617395 0.056958 0.124653
  C 1.913806 0.093800 -0.528230
  C 4.129442 -0.069218 2.356156
  C 2.905225 -0.114018 3.157073
  H 3.120021 -0.174706 4.235879
  C 2.728845 0.151885 -1.556888
  C 2.280898 0.233604 -3.004052
  C 0.774484 0.243910 -3.186677
  H 0.531539 0.303390 -4.240089
  C 4.178818 0.139051 -1.328345
  C 5.126112 0.191669 -2.259894
  O 6.460354 0.177384 -2.004633
  H 0.748153 -0.004419 1.211584
  H 0.037937 -0.819042 -0.182879
  H 0.037972 0.962053 -0.082296
  H 4.660837 0.858982 2.258978
  H 4.661033 -0.980263 2.154733
  H 2.308114 -0.987040 2.905664
  H 2.308766 0.782210 3.004947
  H 2.704626 -0.615718 -3.526887
  H 2.704569 1.136309 -3.427904
  H 0.331400 1.100883 -2.684168
  H 0.331384 -0.664222 -2.783814
  H 4.463693 0.080181 -0.283721
  H 4.941026 0.251332 -3.318168
  H 6.602484 0.123692 -1.051661
 26
 110.402218
  C 0.554120 0.058131 0.109048
  C 1.806542 0.097185 -0.584531
  C 4.299344 -0.072736 2.418959
  C 3.021340 -0.113572 3.146480
  H 3.166597 -0.175247 4.231868
  C 2.661034 0.152906 -1.573183
  C 2.266997 0.236372 -3.055605
  C 0.769304 0.249166 -3.284077
  H 0.556209 0.308796 -4.343077
  C 4.093760 0.136369 -1.277467
  C 5.083339 0.186401 -2.165962
  O 6.404059 0.168749 -1.849978
  H 0.728158 -0.003317 1.198856
  H -0.032564 -0.817398 -0.177297
  H -0.032474 0.960369 -0.077067
  H 4.836889 0.860042 2.336064
  H 4.835601 -0.989835 2.230197
  H 2.436372 -0.986329 2.857720
  H 2.437111 0.786782 2.958387
  H 2.706857 -0.617412 -3.566831
  H 2.706755 1.142174 -3.467709
  H 0.315742 1.103587 -2.794932
  H 0.315848 -0.654780 -2.893973
  H 4.333608 0.076790 -0.217011
  H 4.947267 0.246013 -3.226894
  H 6.502916 0.114731 -0.888285
 26
 110.882990
  C 0.436615 0.059248 0.092126
  C 1.669116 0.100857 -0.647579
  C 4.500211 -0.071920 2.412433
  C 3.183219 -0.109575 3.071402
  H 3.272393 -0.172894 4.171331
  C 2.578620 0.153283 -1.578952
  C 2.271853 0.236925 -3.066205
  C 0.781745 0.254016 -3.370285
  H 0.620268 0.314297 -4.441952
  C 3.996552 0.131860 -1.198064
  C 5.034200 0.178527 -2.028843
  O 6.331912 0.156432 -1.637441
  H 0.643936 -0.001649 1.173324
  H -0.160608 -0.820087 -0.178453
  H -0.160521 0.963439 -0.078021
  H 5.043717 0.854126 2.353039
  H 5.040252 -0.983823 2.247665
  H 2.611293 -0.982276 2.750319
  H 2.611532 0.794167 2.852692
  H 2.739521 -0.625229 -3.557497
  H 2.739539 1.148783 -3.457740
  H 0.305164 1.111832 -2.901318
  H 0.305062 -0.651154 -3.000384
  H 4.179400 0.071586 -0.126446
  H 4.958108 0.238809 -3.100947
  H 6.374407 0.102134 -0.672740
 26
 108.640543
  C 0.237887 0.037102 0.126335
  C 1.469889 0.156900 -0.600634
  C 4.576978 -0.019357 1.900636
  C 3.343501 -0.081928 2.723350
  H 3.574657 -0.159286 3.795391
  C 2.486865 0.161837 -1.394386
  C 2.329586 0.227783 -2.916128
  C 0.877263 0.271932 -3.368801
  H 0.828700 0.317322 -4.454860
  C 3.889278 0.128570 -0.942066
  C 4.966849 0.137716 -1.721443
  O 6.238737 0.099569 -1.253325
  H 0.438832 -0.082477 1.201614
  H -0.329086 -0.839444 -0.201388
  H -0.381539 0.930479 0.006304
  H 5.131481 0.904412 1.896842
  H 5.136162 -0.930363 1.766602
  H 2.744133 -0.954384 2.462547
  H 2.739779 0.815963 2.590934
  H 2.820157 -0.650301 -3.342591
  H 2.851724 1.119175 -3.271774
  H 0.375706 1.147564 -2.963346
  H 0.344417 -0.615692 -3.036135
  H 4.034938 0.087896 0.166521
  H 4.961303 0.172214 -2.801372
  H 6.219308 0.068507 -0.287361
