 22
 0.000000
  C 0.966509 0.156304 0.435571
  C 2.437187 0.138320 0.397415
  C 3.218095 0.603119 1.554189
  H 2.610382 0.937801 2.385313
  C 3.033952 -0.330905 -0.770354
  C 4.415889 -0.414799 -0.983842
  C 5.084540 -0.862350 -2.101799
  C 4.616786 -1.381860 -3.395737
  C 3.135084 -1.509857 -3.710904
  H 3.016531 -1.911290 -4.711558
  H 6.165216 -0.842799 -2.056627
  H 0.572480 0.535774 1.372411
  H 0.575329 -0.848405 0.266396
  H 0.583462 0.763049 -0.386783
  H 3.875765 1.420292 1.250345
  H 3.874561 -0.197691 1.901122
  H 2.357136 -0.643609 -1.547891
  H 5.051838 -0.087455 -0.170956
  H 5.095107 -2.363128 -3.518498
  H 5.093544 -0.756702 -4.162963
  H 2.644579 -0.539806 -3.677658
  H 2.646400 -2.189067 -3.016258
 22
 2.076084
  C 1.005481 0.109738 0.394673
  C 2.475862 0.131524 0.432844
  C 3.218995 0.639776 1.594401
  H 2.555938 0.963922 2.388587
  C 3.058704 -0.334196 -0.731070
  C 4.434976 -0.437691 -0.969032
  C 5.081844 -0.883565 -2.112253
  C 4.592499 -1.378970 -3.408646
  C 3.105676 -1.478183 -3.702886
  H 2.968117 -1.865890 -4.709737
  H 6.165384 -0.874139 -2.063281
  H 0.527632 0.568779 1.255337
  H 0.639988 -0.915611 0.290128
  H 0.721271 0.606600 -0.546264
  H 3.858547 1.472407 1.300953
  H 3.889513 -0.128109 1.981835
  H 2.312812 -0.604127 -1.481273
  H 5.081650 -0.132311 -0.155779
  H 5.057627 -2.363883 -3.555524
  H 5.073155 -0.756227 -4.176240
  H 2.629650 -0.502426 -3.656215
  H 2.613255 -2.160424 -3.015153
 22
 6.394884
  C 1.036131 0.081949 0.348566
  C 2.499687 0.129662 0.452063
  C 3.207945 0.653765 1.615955
  H 2.524548 0.970013 2.393256
  C 3.081104 -0.334419 -0.721977
  C 4.451604 -0.453659 -0.978065
  C 5.080321 -0.893944 -2.119089
  C 4.573388 -1.370659 -3.403737
  C 3.080289 -1.445960 -3.677707
  H 2.923560 -1.823749 -4.677509
  H 6.155988 -0.896604 -2.077884
  H 0.487344 0.612174 1.118242
  H 0.706511 -0.953433 0.339059
  H 0.857371 0.436728 -0.672425
  H 3.838743 1.499629 1.323337
  H 3.889290 -0.102992 2.023307
  H 2.269870 -0.565947 -1.434790
  H 5.108057 -0.160497 -0.159882
  H 5.023174 -2.358476 -3.563692
  H 5.053817 -0.753373 -4.173270
  H 2.620595 -0.460458 -3.620600
  H 2.587115 -2.126087 -2.984883
 22
 11.908908
  C 1.058071 0.058084 0.303401
  C 2.513747 0.122587 0.463484
  C 3.196978 0.662463 1.641064
  H 2.493159 0.974135 2.408851
  C 3.105717 -0.337135 -0.711182
  C 4.467587 -0.463466 -0.975069
  C 5.084122 -0.899907 -2.125547
  C 4.554639 -1.362802 -3.408640
  C 3.054944 -1.417327 -3.655413
  H 2.873685 -1.788321 -4.656872
  H 6.165259 -0.912918 -2.095940
  H 0.465503 0.679901 0.958951
  H 0.729958 -0.978130 0.426375
  H 0.977550 0.253030 -0.784806
  H 3.819740 1.515676 1.352804
  H 3.883686 -0.079221 2.062852
  H 2.264724 -0.532942 -1.399220
  H 5.129228 -0.180211 -0.161759
  H 4.990883 -2.358137 -3.581552
  H 5.031075 -0.744094 -4.183752
  H 2.610512 -0.426964 -3.583645
  H 2.566660 -2.093277 -2.956713
 22
 20.269518
  C 1.072861 0.043967 0.279701
  C 2.520570 0.117427 0.476073
  C 3.185448 0.666577 1.658318
  H 2.472237 0.977004 2.416446
  C 3.118720 -0.342602 -0.700182
  C 4.477533 -0.471118 -0.974525
  C 5.085941 -0.903454 -2.133502
  C 4.542919 -1.356789 -3.415075
  C 3.042136 -1.403200 -3.646874
  H 2.848642 -1.769508 -4.650983
  H 6.169784 -0.921422 -2.113029
  H 0.456738 0.722608 0.851498
  H 0.732818 -0.969744 0.487423
  H 1.083756 0.124659 -0.843996
  H 3.803103 1.522168 1.370073
  H 3.873722 -0.066208 2.091688
  H 2.234006 -0.502373 -1.366281
  H 5.144881 -0.189576 -0.166241
  H 4.971303 -2.349552 -3.596404
  H 5.013062 -0.738655 -4.188996
  H 2.603917 -0.410307 -3.566022
  H 2.558401 -2.080249 -2.945694
 22
 30.101269
  C 1.081618 0.049122 0.250036
  C 2.524880 0.116851 0.474269
  C 3.176508 0.643232 1.674290
  H 2.456452 0.941694 2.426251
  C 3.132566 -0.332596 -0.703282
  C 4.489718 -0.452090 -0.985434
  C 5.091975 -0.888796 -2.145843
  C 4.534634 -1.353532 -3.417936
  C 3.030365 -1.403293 -3.621948
  H 2.819125 -1.778282 -4.616699
  H 6.174879 -0.902532 -2.135138
  H 0.459450 0.783548 0.750422
  H 0.709782 -0.943068 0.522390
  H 1.173086 0.033622 -0.896531
  H 3.799771 1.502209 1.407862
  H 3.856436 -0.098290 2.104096
  H 2.201707 -0.478206 -1.345545
  H 5.159890 -0.155441 -0.184853
  H 4.962973 -2.350655 -3.596995
  H 4.992584 -0.738486 -4.205742
  H 2.593989 -0.410966 -3.542156
  H 2.561308 -2.072802 -2.905751
 22
 40.766290
  C 1.083175 0.070328 0.237246
  C 2.524695 0.119164 0.472620
  C 3.173956 0.608647 1.690456
  H 2.449351 0.899955 2.445871
  C 3.137026 -0.321074 -0.705755
  C 4.495186 -0.424208 -0.999015
  C 5.094585 -0.865378 -2.154997
  C 4.532132 -1.352247 -3.421421
  C 3.024765 -1.420901 -3.610629
  H 2.807654 -1.811340 -4.598325
  H 6.179417 -0.867156 -2.149795
  H 0.475051 0.846743 0.685577
  H 0.675720 -0.894472 0.544511
  H 1.231846 -0.022365 -0.932237
  H 3.810011 1.463145 1.449940
  H 3.837065 -0.151587 2.107514
  H 2.155377 -0.455235 -1.328118
  H 5.166282 -0.098534 -0.210715
  H 4.968650 -2.345356 -3.590578
  H 4.976061 -0.742691 -4.219559
  H 2.579870 -0.433467 -3.539807
  H 2.571174 -2.084384 -2.881738
 22
 51.254652
  C 1.082007 0.106781 0.226966
  C 2.522915 0.121254 0.466494
  C 3.172911 0.554391 1.708684
  H 2.449005 0.836994 2.463746
  C 3.139996 -0.303614 -0.710272
  C 4.497821 -0.378547 -1.019265
  C 5.096341 -0.829939 -2.168260
  C 4.530887 -1.353088 -3.422281
  C 3.024658 -1.451129 -3.588683
  H 2.800951 -1.867918 -4.566598
  H 6.181520 -0.812953 -2.171091
  H 0.501298 0.921745 0.639851
  H 0.630152 -0.832880 0.542869
  H 1.267742 -0.047821 -0.972695
  H 3.833704 1.400705 1.504953
  H 3.809188 -0.239011 2.107691
  H 2.107864 -0.431864 -1.327558
  H 5.166521 -0.006107 -0.249972
  H 4.983010 -2.345506 -3.574239
  H 4.954621 -0.750705 -4.239076
  H 2.564443 -0.468747 -3.534091
  H 2.592981 -2.106197 -2.838332
 22
 60.483708
  C 1.079893 0.159185 0.230456
  C 2.521315 0.124855 0.462276
  C 3.175467 0.482325 1.730405
  H 2.453112 0.756633 2.489844
  C 3.140189 -0.274412 -0.712528
  C 4.493784 -0.317363 -1.046472
  C 5.094270 -0.784181 -2.184975
  C 4.536812 -1.357588 -3.420729
  C 3.026936 -1.502169 -3.572805
  H 2.807845 -1.956252 -4.536176
  H 6.177050 -0.740706 -2.195165
  H 0.536048 1.005185 0.630636
  H 0.579635 -0.762261 0.526824
  H 1.280073 -0.031112 -1.014248
  H 3.867766 1.310899 1.571934
  H 3.773509 -0.350927 2.099939
  H 2.057069 -0.390633 -1.343909
  H 5.157980 0.111124 -0.299986
  H 5.012650 -2.339150 -3.543815
  H 4.937909 -0.768149 -4.256154
  H 2.540320 -0.530047 -3.547717
  H 2.617988 -2.145542 -2.798066
 22
 68.848961
  C 1.079121 0.193371 0.245365
  C 2.518098 0.126462 0.454757
  C 3.172529 0.426009 1.742264
  H 2.448712 0.688731 2.504396
  C 3.143871 -0.245289 -0.707694
  C 4.491037 -0.272762 -1.068780
  C 5.088999 -0.751401 -2.198752
  C 4.535190 -1.364455 -3.418988
  C 3.035587 -1.540916 -3.552722
  H 2.818535 -2.024027 -4.499588
  H 6.173732 -0.687143 -2.218758
  H 0.565754 1.051753 0.652909
  H 0.547677 -0.717141 0.502294
  H 1.280178 0.002023 -1.058712
  H 3.885748 1.244529 1.619839
  H 3.745457 -0.438370 2.086610
  H 2.010161 -0.344838 -1.374205
  H 5.151690 0.193454 -0.342362
  H 5.029356 -2.343172 -3.521403
  H 4.916561 -0.785856 -4.272632
  H 2.533420 -0.581040 -3.551466
  H 2.648041 -2.168429 -2.760700
 22
 76.971396
  C 1.074971 0.217054 0.269446
  C 2.513720 0.124295 0.447235
  C 3.174409 0.383340 1.752880
  H 2.453567 0.635126 2.516217
  C 3.154626 -0.223566 -0.704317
  C 4.494677 -0.242242 -1.084619
  C 5.093174 -0.728491 -2.206754
  C 4.541525 -1.370585 -3.416390
  C 3.037616 -1.568674 -3.534406
  H 2.818357 -2.073458 -4.468945
  H 6.171850 -0.649280 -2.233272
  H 0.587876 1.078839 0.689615
  H 0.520775 -0.691986 0.491819
  H 1.258906 0.022154 -1.132913
  H 3.897724 1.194019 1.654435
  H 3.729532 -0.497603 2.076134
  H 1.954189 -0.314328 -1.438942
  H 5.151078 0.250036 -0.370384
  H 5.044507 -2.339882 -3.502838
  H 4.907152 -0.803266 -4.279779
  H 2.523074 -0.612614 -3.549722
  H 2.663120 -2.185494 -2.725372
 22
 84.407573
  C 1.068091 0.236726 0.308111
  C 2.505321 0.120150 0.438662
  C 3.177455 0.338595 1.754677
  H 2.458981 0.578320 2.526117
  C 3.163363 -0.200172 -0.699739
  C 4.493992 -0.212826 -1.101408
  C 5.095084 -0.706969 -2.215389
  C 4.546638 -1.379364 -3.413728
  C 3.047652 -1.593767 -3.515164
  H 2.826042 -2.122473 -4.435770
  H 6.169930 -0.614961 -2.246561
  H 0.605321 1.097915 0.752650
  H 0.495703 -0.667439 0.482745
  H 1.219684 0.052198 -1.212728
  H 3.906232 1.142449 1.675249
  H 3.718295 -0.556190 2.051664
  H 1.884243 -0.278094 -1.517406
  H 5.145826 0.301739 -0.398019
  H 5.060013 -2.348079 -3.482586
  H 4.899418 -0.824375 -4.290683
  H 2.524245 -0.641517 -3.550146
  H 2.684487 -2.194681 -2.688104
 22
 90.475272
  C 1.058939 0.257922 0.359681
  C 2.494945 0.117409 0.430669
  C 3.180565 0.286537 1.749325
  H 2.464911 0.512337 2.533948
  C 3.170672 -0.175778 -0.697465
  C 4.490315 -0.186287 -1.119051
  C 5.096395 -0.685289 -2.224098
  C 4.557091 -1.388318 -3.409384
  C 3.058746 -1.628973 -3.497336
  H 2.838359 -2.184743 -4.408801
  H 6.173961 -0.572790 -2.260246
  H 0.622388 1.120766 0.845010
  H 0.467010 -0.636838 0.481281
  H 1.158554 0.103213 -1.304289
  H 3.917296 1.083302 1.689084
  H 3.706640 -0.625773 2.012036
  H 1.798457 -0.225390 -1.615954
  H 5.136877 0.354412 -0.427756
  H 5.087853 -2.353170 -3.460708
  H 4.896669 -0.841354 -4.300757
  H 2.519894 -0.683912 -3.551425
  H 2.707932 -2.217698 -2.651424
 22
 93.881919
  C 1.053839 0.278284 0.410905
  C 2.476611 0.120641 0.403470
  C 3.184433 0.198169 1.736331
  H 2.478124 0.389057 2.535040
  C 3.178973 -0.124257 -0.701822
  C 4.479989 -0.134145 -1.150892
  C 5.095029 -0.645526 -2.245617
  C 4.565807 -1.407819 -3.397362
  C 3.075501 -1.692110 -3.445354
  H 2.852758 -2.296740 -4.322061
  H 6.165111 -0.498560 -2.295611
  H 0.647263 1.095843 0.983632
  H 0.433847 -0.605086 0.405515
  H 1.088334 0.260989 -1.417896
  H 3.933380 0.985281 1.716641
  H 3.688671 -0.741674 1.934608
  H 1.704794 -0.070917 -1.754668
  H 5.117099 0.451488 -0.484100
  H 5.121623 -2.356755 -3.413961
  H 4.872934 -0.885754 -4.312607
  H 2.512315 -0.766976 -3.535616
  H 2.754740 -2.243661 -2.566272
