9

C -3.515389 0.975885 -0.122879
C -2.0659 0.599462 -0.036328
C -1.647324 -0.46119 0.631104
H -1.245394484301044 -0.5966911964696764 0.6773242380032138
H -4.102753 0.131802 -0.479155
H -3.667355 1.821367 -0.78616
H -3.895397 1.24198 0.863424
H -1.369803 1.24466 -0.552094
H -2.387883 -1.080031 1.124976
