 17
 0.000000
  H 1.433019 -0.076850 0.037190
  C 2.506133 -0.083343 0.024445
  C 3.220474 -0.593717 -0.977505
  C 4.657472 -0.605094 -0.999840
  C 5.379041 -1.120102 -2.010884
  C 6.816268 -1.130829 -2.031941
  C 7.534478 -1.641884 -3.035235
  C 9.023399 -1.662211 -3.075131
  H 3.002808 0.351865 0.878833
  H 2.711024 -1.027372 -1.828834
  H 5.161643 -0.170388 -0.146442
  H 4.874931 -1.554855 -2.864376
  H 7.322456 -0.696516 -1.179312
  H 7.035351 -2.077814 -3.891022
  H 9.456067 -1.209183 -2.185766
  H 9.382493 -1.117460 -3.949104
  H 9.382492 -2.689446 -3.148364
 17
 7.580840
  H 1.408649 -0.066037 0.058412
  C 2.483161 -0.074435 0.041932
  C 3.191102 -0.586850 -0.964024
  C 4.628302 -0.602653 -0.995044
  C 5.342929 -1.119304 -2.009313
  C 6.779697 -1.134476 -2.039098
  C 7.486133 -1.645349 -3.042036
  C 9.134125 -1.670667 -3.091733
  H 2.982825 0.359671 0.894156
  H 2.676833 -1.019367 -1.813120
  H 5.138369 -0.169395 -0.144488
  H 4.832648 -1.552643 -2.860030
  H 7.291888 -0.701567 -1.189227
  H 6.987080 -2.079877 -3.895074
  H 9.563677 -1.218481 -2.204019
  H 9.485811 -1.127250 -3.965272
  H 9.485808 -2.696762 -3.165789
 17
 23.728410
  H 1.391646 -0.055590 0.078920
  C 2.467388 -0.065303 0.059857
  C 3.166404 -0.579696 -0.949979
  C 4.603731 -0.601390 -0.992561
  C 5.309433 -1.119859 -2.010398
  C 6.748282 -1.140669 -2.051258
  C 7.435907 -1.651802 -3.054704
  C 9.243369 -1.676483 -3.103160
  H 2.968417 0.368012 0.910527
  H 2.647074 -1.010996 -1.796686
  H 5.121350 -0.169906 -0.145491
  H 4.791056 -1.551514 -2.857811
  H 7.267747 -0.709149 -1.204114
  H 6.953511 -2.087017 -3.909096
  H 9.644970 -1.222242 -2.211412
  H 9.575636 -1.131697 -3.973563
  H 9.575642 -2.700870 -3.174270
 17
 42.013152
  H 1.370706 -0.043090 0.103451
  C 2.445809 -0.054476 0.081107
  C 3.137388 -0.571447 -0.933789
  C 4.574883 -0.598270 -0.986436
  C 5.272830 -1.119092 -2.008888
  C 6.714330 -1.144725 -2.059206
  C 7.394463 -1.662642 -3.075970
  C 9.361532 -1.683846 -3.117610
  H 2.949673 0.378328 0.930780
  H 2.613061 -1.001518 -1.778089
  H 5.099335 -0.168377 -0.142481
  H 4.747827 -1.548987 -2.852842
  H 7.238494 -0.714573 -1.214754
  H 6.929506 -2.102484 -3.939453
  H 9.733548 -1.223740 -2.214344
  H 9.676167 -1.131994 -3.992254
  H 9.676166 -2.715786 -3.185498
 17
 58.413059
  H 1.379476 -0.027122 0.134777
  C 2.453830 -0.041632 0.106310
  C 3.129658 -0.563699 -0.918576
  C 4.567084 -0.600919 -0.991623
  C 5.248913 -1.127381 -2.025147
  C 6.686119 -1.161901 -2.092902
  C 7.338942 -1.681962 -3.113883
  C 9.465856 -1.674458 -3.099171
  H 2.962753 0.390116 0.953901
  H 2.595432 -0.991228 -1.757884
  H 5.105255 -0.174383 -0.154263
  H 4.712237 -1.553912 -2.862512
  H 7.215204 -0.734496 -1.253837
  H 6.946484 -2.136925 -4.007063
  H 9.723756 -1.197203 -2.162229
  H 9.721327 -1.102774 -3.985608
  H 9.721322 -2.727546 -3.157956
 17
 75.048925
  H 1.370682 -0.015573 0.157468
  C 2.446298 -0.034338 0.120637
  C 3.106714 -0.556671 -0.904777
  C 4.540753 -0.600437 -0.990686
  C 5.206756 -1.127199 -2.024800
  C 6.654103 -1.168658 -2.106189
  C 7.293844 -1.689568 -3.128835
  C 9.580021 -1.677871 -3.105900
  H 2.962863 0.394762 0.963025
  H 2.563607 -0.981714 -1.739197
  H 5.088385 -0.176645 -0.158717
  H 4.659703 -1.551378 -2.857540
  H 7.192405 -0.742185 -1.268958
  H 6.921242 -2.143172 -4.019342
  H 9.806037 -1.203770 -2.175155
  H 9.811462 -1.110681 -3.981856
  H 9.811480 -2.719931 -3.162159
 17
 89.244236
  H 1.346487 0.004213 0.196310
  C 2.421631 -0.018062 0.152591
  C 3.079466 -0.548783 -0.889289
  C 4.518797 -0.598794 -0.987458
  C 5.179864 -1.132585 -2.035373
  C 6.624882 -1.179419 -2.127314
  C 7.254937 -1.701764 -3.152773
  C 9.700127 -1.679747 -3.109565
  H 2.944791 0.410025 0.992985
  H 2.528738 -0.972270 -1.720662
  H 5.074871 -0.176736 -0.158892
  H 4.626456 -1.554703 -2.864069
  H 7.166422 -0.754848 -1.293811
  H 6.904638 -2.161142 -4.054612
  H 9.886348 -1.198650 -2.165082
  H 9.908200 -1.103336 -3.995543
  H 9.908201 -2.735284 -3.164251
 17
 100.719799
  H 1.365073 0.017396 0.222219
  C 2.438901 -0.012172 0.164164
  C 3.069101 -0.540533 -0.873090
  C 4.502846 -0.600276 -0.990384
  C 5.140873 -1.136202 -2.042491
  C 6.586282 -1.192644 -2.153297
  C 7.207474 -1.716017 -3.180769
  C 9.810696 -1.672019 -3.094381
  H 2.976309 0.411709 0.996299
  H 2.504087 -0.959639 -1.695853
  H 5.073051 -0.182360 -0.169953
  H 4.574839 -1.554675 -2.864019
  H 7.134042 -0.769373 -1.322353
  H 6.903577 -2.180745 -4.093101
  H 9.917537 -1.187600 -2.143380
  H 9.972381 -1.090533 -3.981912
  H 9.972374 -2.731796 -3.145867
 17
 110.272778
  H 1.352025 0.031809 0.250514
  C 2.425555 -0.001979 0.184175
  C 3.049879 -0.535893 -0.863980
  C 4.480700 -0.600852 -0.991514
  C 5.104312 -1.135589 -2.041287
  C 6.550535 -1.197399 -2.162632
  C 7.165311 -1.721470 -3.191478
  C 9.927837 -1.675635 -3.101486
  H 2.970923 0.420019 1.012611
  H 2.477509 -0.952991 -1.682799
  H 5.058181 -0.185450 -0.176021
  H 4.530864 -1.551876 -2.858520
  H 7.104532 -0.775186 -1.333772
  H 6.867334 -2.186393 -4.104196
  H 10.020773 -1.192311 -2.152635
  H 10.075616 -1.095377 -3.987384
  H 10.075613 -2.733390 -3.153010
 17
 117.801504
  H 1.335405 0.046117 0.278599
  C 2.408038 0.008382 0.204513
  C 3.017744 -0.523715 -0.840072
  C 4.450443 -0.594175 -0.978405
  C 5.073994 -1.139306 -2.048582
  C 6.523716 -1.206713 -2.180914
  C 7.133058 -1.731261 -3.210699
  C 10.054579 -1.679812 -3.109695
  H 2.960911 0.427956 1.028190
  H 2.437583 -0.938424 -1.654204
  H 5.035377 -0.180191 -0.165695
  H 4.493882 -1.554137 -2.862958
  H 7.082729 -0.785744 -1.354497
  H 6.845281 -2.197111 -4.125240
  H 10.126048 -1.195698 -2.159290
  H 10.185913 -1.098403 -3.997283
  H 10.185915 -2.739630 -3.161286
 17
 123.389253
  H 1.341906 0.066028 0.317697
  C 2.413844 0.020714 0.228727
  C 3.010773 -0.519496 -0.831788
  C 4.443330 -0.599399 -0.988658
  C 5.041390 -1.142365 -2.054585
  C 6.487692 -1.218827 -2.204715
  C 7.094246 -1.742971 -3.233702
  C 10.173511 -1.673464 -3.097246
  H 2.981026 0.436610 1.045184
  H 2.416838 -0.930631 -1.638905
  H 5.041708 -0.189503 -0.183974
  H 4.449797 -1.553520 -2.861749
  H 7.053007 -0.799278 -1.381080
  H 6.836470 -2.211672 -4.153827
  H 10.181922 -1.188463 -2.145109
  H 10.262890 -1.090132 -3.988017
  H 10.262894 -2.737030 -3.149146
 17
 127.515643
  H 1.332695 0.078141 0.341467
  C 2.403409 0.029604 0.246177
  C 2.992702 -0.512534 -0.818125
  C 4.419034 -0.596195 -0.982363
  C 5.010302 -1.141758 -2.053389
  C 6.456672 -1.222512 -2.211937
  C 7.058504 -1.747485 -3.242550
  C 10.297325 -1.678242 -3.106590
  H 2.976846 0.443897 1.059493
  H 2.393732 -0.921685 -1.621353
  H 5.022037 -0.188338 -0.181676
  H 4.413476 -1.551144 -2.857087
  H 7.027256 -0.804058 -1.390443
  H 6.800367 -2.216852 -4.163987
  H 10.299630 -1.193779 -2.155499
  H 10.376977 -1.095361 -3.997536
  H 10.376968 -2.741589 -3.158952
 17
 130.573356
  H 1.322468 0.090891 0.366506
  C 2.392635 0.038770 0.264177
  C 2.972794 -0.504794 -0.802928
  C 4.401519 -0.593349 -0.976783
  C 4.984164 -1.140910 -2.051730
  C 6.429574 -1.226388 -2.219556
  C 7.026281 -1.752285 -3.251983
  C 10.424684 -1.683755 -3.117436
  H 2.972654 0.450984 1.073410
  H 2.366664 -0.912140 -1.602609
  H 5.011637 -0.187146 -0.179347
  H 4.381131 -1.548502 -2.851902
  H 7.005599 -0.809433 -1.401011
  H 6.768348 -2.221016 -4.172167
  H 10.420713 -1.199112 -2.166001
  H 10.494381 -1.100878 -4.009255
  H 10.494380 -2.747872 -3.170318
 17
 132.701535
  H 1.319227 0.103451 0.391161
  C 2.388388 0.047940 0.282177
  C 2.960378 -0.497611 -0.788827
  C 4.385108 -0.590363 -0.970920
  C 4.959706 -1.140053 -2.050046
  C 6.404591 -1.230105 -2.226845
  C 6.996463 -1.756834 -3.260906
  C 10.554445 -1.689227 -3.128164
  H 2.974889 0.458401 1.087973
  H 2.348607 -0.902883 -1.584440
  H 5.000666 -0.186244 -0.177573
  H 4.350899 -1.545833 -2.846661
  H 6.986109 -0.814481 -1.410913
  H 6.737793 -2.225919 -4.181790
  H 10.545286 -1.204786 -2.177120
  H 10.615330 -1.106490 -4.020517
  H 10.615325 -2.753660 -3.181474
