 22
 0.000000
  C 0.993172 0.053074 0.195125
  C 2.497595 0.054658 0.167090
  C 3.292164 -0.017704 1.449689
  C 2.504209 -0.091380 2.755402
  C 3.449620 -0.158789 3.950195
  C 3.111521 0.121754 -1.022094
  H 2.500755 0.172216 -1.916496
  C 4.532993 0.135118 -1.258876
  C 5.067694 0.203758 -2.475438
  H 6.132691 0.212560 -2.631312
  H 0.594967 -0.003662 1.200632
  H 0.610262 -0.794561 -0.373114
  H 0.610258 0.959253 -0.274158
  H 3.944662 0.860554 1.497256
  H 3.944641 -0.895699 1.398165
  H 1.868585 -0.979555 2.759287
  H 1.868624 0.790656 2.859162
  H 4.086794 -1.038652 3.885657
  H 2.887220 -0.211232 4.879819
  H 4.086664 0.722602 3.985028
  H 5.182941 0.086447 -0.396142
  H 4.451722 0.253579 -3.358478
 22
 -0.410241
  C 0.997957 0.078849 0.205972
  C 2.499118 0.103123 0.165452
  C 3.293487 0.015807 1.447409
  C 2.500370 -0.085695 2.748634
  C 3.439835 -0.207445 3.943620
  C 3.110822 0.169817 -1.026030
  H 2.498816 0.225385 -1.917572
  C 4.533962 0.164504 -1.264539
  C 5.068406 0.203173 -2.482481
  H 6.133137 0.194796 -2.640214
  H 0.602411 0.337571 1.181743
  H 0.636946 -0.919420 -0.047199
  H 0.589387 0.770578 -0.527416
  H 3.944496 0.893599 1.511094
  H 3.947319 -0.859947 1.383519
  H 1.847784 -0.960487 2.718925
  H 1.880241 0.803072 2.881063
  H 4.063920 -1.094278 3.852302
  H 2.873208 -0.281990 4.868958
  H 4.090183 0.662631 4.009691
  H 5.183731 0.126210 -0.401240
  H 4.453669 0.237237 -3.367203
 22
 -1.223437
  C 1.008988 0.080990 0.229329
  C 2.507968 0.107869 0.162079
  C 3.299801 0.004027 1.443059
  C 2.494067 -0.088411 2.737046
  C 3.418602 -0.256900 3.937940
  C 3.112898 0.184483 -1.031385
  H 2.500088 0.245623 -1.922126
  C 4.536469 0.180582 -1.272530
  C 5.069418 0.210471 -2.492035
  H 6.133987 0.204626 -2.651230
  H 0.647832 0.642557 1.083845
  H 0.659285 -0.948388 0.316649
  H 0.580625 0.507750 -0.674076
  H 3.965197 0.870618 1.513114
  H 3.939273 -0.882191 1.379416
  H 1.811878 -0.939702 2.689696
  H 1.901183 0.817724 2.876067
  H 4.007944 -1.166650 3.843571
  H 2.842678 -0.316251 4.858638
  H 4.103001 0.585861 4.015574
  H 5.186902 0.149454 -0.409741
  H 4.453438 0.241957 -3.376232
 22
 5.957397
  C 0.989899 0.016798 0.239296
  C 2.505181 0.163168 0.181162
  C 3.280118 -0.037637 1.460978
  C 2.470266 -0.063236 2.754235
  C 3.394289 -0.236379 3.956439
  C 3.097498 0.251844 -1.019354
  H 2.488801 0.420514 -1.891103
  C 4.525065 0.179249 -1.279650
  C 5.039335 0.204351 -2.502938
  H 6.103125 0.130111 -2.663770
  H 0.797977 0.754912 0.991804
  H 0.761328 -1.025527 0.346023
  H 0.564760 0.416806 -0.693159
  H 4.026497 0.756779 1.541008
  H 3.842796 -0.975136 1.391087
  H 1.778252 -0.897369 2.717617
  H 1.896913 0.855633 2.870490
  H 3.981986 -1.147444 3.854641
  H 2.821140 -0.281115 4.877372
  H 4.090093 0.597767 4.032990
  H 5.168730 0.036223 -0.428345
  H 4.428069 0.342795 -3.372973
 22
 29.598121
  C 0.963771 -0.069860 0.224184
  C 2.527208 0.134065 0.166481
  C 3.299753 -0.045617 1.450625
  C 2.471181 -0.028432 2.751627
  C 3.384640 -0.226288 3.959592
  C 3.090952 0.291204 -1.014115
  H 2.447907 0.440355 -1.874588
  C 4.497069 0.155345 -1.276277
  C 5.018493 0.216985 -2.501821
  H 6.073237 0.043348 -2.687529
  H 1.055081 0.672484 0.969902
  H 0.856107 -1.142346 0.204283
  H 0.534393 0.407918 -0.646219
  H 3.974049 0.823465 1.516190
  H 3.859235 -0.978433 1.394443
  H 1.723287 -0.808685 2.734765
  H 1.978018 0.942591 2.847353
  H 3.894056 -1.189976 3.893526
  H 2.815990 -0.206284 4.883359
  H 4.131671 0.557446 4.013945
  H 5.139928 -0.030497 -0.420261
  H 4.418702 0.478483 -3.353349
 22
 74.225312
  C 0.837439 0.039072 0.281760
  C 2.594092 0.258773 0.227698
  C 3.350359 0.066807 1.513764
  C 2.479492 -0.047955 2.763437
  C 3.311444 -0.300062 4.011678
  C 3.090797 0.284712 -0.992577
  H 2.425610 0.301506 -1.848922
  C 4.506109 0.203551 -1.315354
  C 4.967914 0.086376 -2.571271
  H 6.024192 0.041373 -2.793921
  H 1.338419 0.836148 0.781124
  H 1.025501 -1.022437 0.179794
  H 0.508967 0.463255 -0.665384
  H 4.078917 0.888575 1.645196
  H 3.911373 -0.863391 1.414554
  H 1.752859 -0.845495 2.634132
  H 1.893084 0.872916 2.897198
  H 3.892784 -1.203212 3.884480
  H 2.670630 -0.442714 4.866576
  H 3.994827 0.520003 4.206110
  H 5.193029 0.261260 -0.483517
  H 4.294726 0.039594 -3.424734
 22
 97.425600
  C 0.627361 -0.036799 0.319914
  C 2.648123 0.224321 0.244127
  C 3.385230 0.028398 1.527248
  C 2.488305 -0.021096 2.764877
  C 3.309047 -0.249175 4.029570
  C 3.145790 0.287768 -0.987087
  H 2.483311 0.427307 -1.829548
  C 4.550614 0.135945 -1.316059
  C 5.005388 0.143900 -2.565339
  H 6.049456 0.022728 -2.791283
  H 1.511888 0.626587 0.580410
  H 0.812297 -1.056959 -0.001009
  H 0.250557 0.511871 -0.562232
  H 4.110939 0.846527 1.644637
  H 3.954117 -0.903567 1.467620
  H 1.758453 -0.820599 2.648066
  H 1.937471 0.914849 2.853115
  H 3.847828 -1.191324 3.973268
  H 2.660579 -0.278728 4.901870
  H 4.035296 0.552661 4.169334
  H 5.232761 0.008472 -0.490286
  H 4.344465 0.267592 -3.405518
 22
 103.103985
  C 0.454694 -0.069374 0.399995
  C 2.707123 0.198589 0.241150
  C 3.432145 0.014205 1.528064
  C 2.517745 0.002251 2.752462
  C 3.314727 -0.212310 4.032880
  C 3.192411 0.239813 -0.995680
  H 2.528014 0.374475 -1.838812
  C 4.599304 0.122134 -1.326738
  C 5.053693 0.171151 -2.574611
  H 6.102104 0.085207 -2.801967
  H 1.573044 0.416731 0.411375
  H 0.524650 -1.048718 -0.096184
  H 0.022375 0.604219 -0.370697
  H 4.165599 0.821599 1.637480
  H 3.988903 -0.928244 1.489669
  H 1.776942 -0.788707 2.638353
  H 1.978915 0.949072 2.810385
  H 3.840590 -1.164610 4.004183
  H 2.652518 -0.214287 4.894590
  H 4.049237 0.579532 4.167994
  H 5.283883 -0.009673 -0.500774
  H 4.389909 0.302649 -3.413541
 22
 104.553178
  C 0.374919 -0.140924 0.442653
  C 2.731444 0.104573 0.221409
  C 3.452605 -0.021214 1.516186
  C 2.532059 0.003255 2.735812
  C 3.324087 -0.154297 4.027259
  C 3.216944 0.149929 -1.013234
  H 2.548746 0.232148 -1.860204
  C 4.630256 0.122800 -1.337969
  C 5.087139 0.219982 -2.581776
  H 6.139797 0.197064 -2.804228
  H 1.589683 0.130922 0.349599
  H 0.252267 -0.917413 -0.335483
  H -0.033773 0.781077 -0.020607
  H 4.175966 0.797936 1.597637
  H 4.019895 -0.958513 1.515313
  H 1.799657 -0.798823 2.646590
  H 1.983627 0.945868 2.754408
  H 3.858746 -1.102076 4.037614
  H 2.657254 -0.129560 4.885080
  H 4.050633 0.649013 4.135855
  H 5.316829 0.016898 -0.510216
  H 4.421210 0.325364 -3.422574
 22
 105.350906
  C 0.553608 -0.360311 0.328522
  C 2.688979 0.207064 0.237964
  C 3.428162 0.035994 1.522116
  C 2.521565 0.083094 2.751228
  C 3.312462 -0.147003 4.032197
  C 3.169823 0.214234 -1.001227
  H 2.502866 0.344761 -1.843322
  C 4.573373 0.086672 -1.334451
  C 5.029051 0.153684 -2.581690
  H 6.075823 0.056498 -2.810810
  H 1.575309 0.359125 0.434123
  H 0.669732 -0.969565 -0.580221
  H -0.085242 0.494520 0.012083
  H 4.184674 0.824597 1.601669
  H 3.957194 -0.922614 1.505930
  H 1.746795 -0.676908 2.645478
  H 2.026426 1.055262 2.799746
  H 3.789900 -1.124292 4.017550
  H 2.655036 -0.101547 4.896578
  H 4.085990 0.609795 4.150678
  H 5.257271 -0.066396 -0.511915
  H 4.366886 0.306876 -3.418302
 22
 90.947679
  C 0.967186 -0.378134 0.274820
  C 2.508623 0.159072 0.221262
  C 3.326385 0.018172 1.493497
  C 2.470296 0.030475 2.753546
  C 3.315409 -0.176863 4.000254
  C 3.080772 0.233906 -1.062167
  H 2.419886 0.278266 -1.915171
  C 4.470673 0.105253 -1.312871
  C 5.004062 0.125500 -2.544944
  H 6.068177 0.072481 -2.705822
  H 1.751360 0.936728 0.355332
  H 0.901385 -0.886050 -0.704832
  H 0.109270 0.277526 0.306764
  H 4.055404 0.826564 1.540430
  H 3.885061 -0.926258 1.443721
  H 1.713640 -0.747090 2.679988
  H 1.949727 0.992808 2.829247
  H 3.795738 -1.150117 3.979459
  H 2.695381 -0.117175 4.893580
  H 4.087517 0.588529 4.074548
  H 5.121863 0.070753 -0.453629
  H 4.385823 0.135429 -3.426348
 22
 66.622221
  C 1.042060 -0.208281 0.254029
  C 2.493534 0.242136 0.181582
  C 3.325149 0.111596 1.434180
  C 2.499744 -0.008197 2.708761
  C 3.374956 -0.228406 3.931933
  C 3.071349 0.321757 -1.043682
  H 2.480696 0.424070 -1.939734
  C 4.489557 0.123516 -1.235248
  C 5.054698 -0.014509 -2.436276
  H 6.118881 -0.133065 -2.556211
  H 1.149046 0.939734 0.002251
  H 0.790752 -0.760754 -0.648670
  H 0.128297 0.132434 0.723781
  H 3.986825 0.970370 1.527294
  H 3.960218 -0.775288 1.335717
  H 1.791900 -0.834218 2.600483
  H 1.920850 0.897316 2.849569
  H 3.956635 -1.135635 3.836249
  H 2.763012 -0.301276 4.825647
  H 4.063245 0.604973 4.059913
  H 5.106638 0.019036 -0.353290
  H 4.480618 0.080039 -3.342198
 22
 13.700854
  C 1.017909 -0.039786 0.147691
  C 2.501206 0.180537 0.125938
  C 3.287095 -0.052690 1.392487
  C 2.476670 0.009946 2.685826
  C 3.366545 -0.233406 3.905002
  C 3.110675 0.307611 -1.066963
  H 2.548143 0.359770 -1.989458
  C 4.546556 0.204598 -1.205062
  C 5.155543 0.131774 -2.393623
  H 6.232616 0.096116 -2.481620
  H 0.761995 0.964467 -0.274184
  H 0.645234 -0.757799 -0.566223
  H 0.442998 0.104963 1.056319
  H 4.096374 0.684315 1.452269
  H 3.747654 -1.043629 1.331897
  H 1.699491 -0.752422 2.658553
  H 1.994284 0.985685 2.781772
  H 3.817481 -1.227145 3.857290
  H 2.784772 -0.172954 4.820281
  H 4.165372 0.502081 3.952276
  H 5.147290 0.324082 -0.324012
  H 4.595586 0.028814 -3.315299
 22
 -0.232520
  C 0.997506 0.081301 0.128907
  C 2.498361 0.134199 0.105266
  C 3.261243 -0.031413 1.398418
  C 2.442959 -0.050276 2.688138
  C 3.350666 -0.245776 3.897418
  C 3.142671 0.246211 -1.068997
  H 2.570078 0.333581 -1.986040
  C 4.577657 0.213937 -1.227260
  C 5.177694 0.150389 -2.414176
  H 6.248963 0.114673 -2.512267
  H 0.594883 0.759338 -0.620942
  H 0.650565 -0.922625 -0.115775
  H 0.583291 0.376798 1.085157
  H 3.994915 0.779035 1.476184
  H 3.825601 -0.967166 1.343625
  H 1.713904 -0.862470 2.658259
  H 1.903234 0.895377 2.801964
  H 3.885049 -1.191447 3.826624
  H 2.768268 -0.249983 4.815332
  H 4.082462 0.555601 3.960800
  H 5.180583 0.235323 -0.330799
  H 4.611887 0.124619 -3.332626
 22
 -0.852747
  C 1.032843 0.169387 0.155565
  C 2.529120 0.084413 0.118543
  C 3.288918 -0.027221 1.416509
  C 2.433283 -0.173664 2.674508
  C 3.308560 -0.275052 3.919056
  C 3.151870 0.178438 -1.063387
  H 2.578941 0.231533 -1.982223
  C 4.586359 0.238603 -1.276215
  C 5.155591 0.156673 -2.481791
  H 6.225073 0.205311 -2.618401
  H 0.680065 0.368681 -0.854531
  H 0.577394 -0.748617 0.521709
  H 0.710759 0.992990 0.789996
  H 3.927601 0.854889 1.531888
  H 3.954844 -0.894145 1.355390
  H 1.814370 -1.069083 2.593029
  H 1.769793 0.685987 2.781505
  H 3.969154 -1.137525 3.856470
  H 2.694690 -0.379013 4.811380
  H 3.922686 0.617163 4.027464
  H 5.214277 0.368849 -0.399511
  H 4.567217 0.019259 -3.378414
