 20
 0.000000
  C 1.006556 -0.072520 0.046058
  C 2.502579 -0.083201 0.025211
  C 3.220101 -0.594443 -0.980561
  C 4.657625 -0.604515 -0.999731
  C 5.379514 -1.119690 -2.010301
  C 6.817662 -1.129550 -2.029799
  C 7.533972 -1.642558 -3.035064
  C 9.023824 -1.662683 -3.075963
  H 0.645306 0.392467 0.962305
  H 0.610279 -1.086912 0.005849
  H 0.610042 0.494862 -0.795816
  H 3.001997 0.351249 0.881076
  H 2.710631 -1.027724 -1.832568
  H 5.160824 -0.169451 -0.145298
  H 4.875961 -1.555189 -2.864252
  H 7.325585 -0.694287 -1.178084
  H 7.033460 -2.079499 -3.890093
  H 9.459252 -1.208746 -2.187558
  H 9.381705 -1.117971 -3.951007
  H 9.382528 -2.690620 -3.147854
 20
 1.673975
  C 1.046088 0.005738 -0.063751
  C 2.514791 -0.136953 0.135981
  C 3.256613 -0.716091 -0.818011
  C 4.685968 -0.750553 -0.849245
  C 5.362029 -1.203784 -1.917459
  C 6.777510 -1.137872 -2.013278
  C 7.500644 -1.629721 -3.049545
  C 8.988020 -1.582751 -3.144362
  H 0.578269 0.596998 0.705782
  H 0.561043 -0.957581 -0.099932
  H 0.909960 0.493456 -1.048986
  H 2.964920 0.299687 1.003709
  H 2.756529 -1.129584 -1.679553
  H 5.214586 -0.330014 -0.011537
  H 4.829713 -1.624089 -2.750505
  H 7.291542 -0.679420 -1.181125
  H 6.989998 -2.091200 -3.890390
  H 9.423388 -1.103710 -2.268796
  H 9.294676 -1.032446 -4.034679
  H 9.391959 -2.592044 -3.229527
 20
 5.355825
  C 1.143778 0.113208 -0.274082
  C 2.537822 -0.168564 0.170377
  C 3.305237 -0.892125 -0.641887
  C 4.719720 -0.960674 -0.627542
  C 5.366624 -1.345772 -1.735962
  C 6.760352 -1.187456 -1.929324
  C 7.416637 -1.593201 -3.028027
  C 8.882509 -1.447864 -3.241858
  H 0.651082 0.873794 0.329687
  H 0.531838 -0.784994 -0.268850
  H 1.241049 0.457986 -1.314827
  H 2.929141 0.325136 1.053241
  H 2.834717 -1.336554 -1.513838
  H 5.255350 -0.540255 0.215263
  H 4.802504 -1.755650 -2.567144
  H 7.315925 -0.725503 -1.121427
  H 6.866719 -2.052029 -3.840999
  H 9.359506 -0.972565 -2.386600
  H 9.081024 -0.848522 -4.134221
  H 9.337052 -2.425991 -3.398388
 20
 10.260146
  C 1.328518 0.260299 -0.490014
  C 2.606182 -0.175241 0.130308
  C 3.298916 -1.129955 -0.478015
  C 4.713434 -1.229240 -0.433093
  C 5.347870 -1.575439 -1.561052
  C 6.704902 -1.277589 -1.833208
  C 7.312528 -1.549320 -2.999503
  C 8.738830 -1.241282 -3.305769
  H 0.925983 1.158396 -0.027933
  H 0.564406 -0.521633 -0.461333
  H 1.585775 0.464713 -1.549122
  H 3.026117 0.412160 0.932842
  H 2.818074 -1.667990 -1.292020
  H 5.245661 -0.769298 0.386355
  H 4.780506 -2.014017 -2.375017
  H 7.276791 -0.807297 -1.037482
  H 6.750533 -2.010307 -3.800261
  H 9.229235 -0.772716 -2.457745
  H 8.812123 -0.576029 -4.165734
  H 9.272407 -2.157614 -3.557390
 20
 15.814268
  C 1.571507 0.379571 -0.711669
  C 2.727624 -0.171360 0.037257
  C 3.281714 -1.313683 -0.349098
  C 4.697976 -1.451510 -0.283620
  C 5.315638 -1.790442 -1.421358
  C 6.636680 -1.387674 -1.737327
  C 7.185313 -1.512235 -2.954553
  C 8.539016 -1.026787 -3.322809
  H 1.258879 1.348094 -0.333781
  H 0.717481 -0.288062 -0.727534
  H 1.959168 0.484814 -1.743886
  H 3.237756 0.480266 0.731244
  H 2.760309 -1.941873 -1.062777
  H 5.234945 -0.964991 0.520600
  H 4.743386 -2.246995 -2.223767
  H 7.207310 -0.923461 -0.940970
  H 6.617959 -1.967637 -3.753250
  H 9.035030 -0.567634 -2.472062
  H 8.473541 -0.296591 -4.128254
  H 9.151589 -1.853239 -3.681688
 20
 21.466706
  C 1.781165 0.435599 -0.880965
  C 2.804737 -0.175938 0.005360
  C 3.268094 -1.393130 -0.265978
  C 4.684140 -1.585927 -0.180312
  C 5.282920 -1.896927 -1.339077
  C 6.574611 -1.420726 -1.690975
  C 7.074640 -1.462354 -2.933255
  C 8.387846 -0.890849 -3.333524
  H 1.500753 1.435497 -0.566858
  H 0.886067 -0.174769 -0.994342
  H 2.312870 0.474485 -1.854611
  H 3.352601 0.484052 0.662294
  H 2.723473 -2.029487 -0.952161
  H 5.232764 -1.105741 0.621730
  H 4.699408 -2.343115 -2.134216
  H 7.149784 -0.960962 -0.897480
  H 6.497398 -1.915256 -3.727853
  H 8.896438 -0.444164 -2.482118
  H 8.251315 -0.129877 -4.100456
  H 9.024565 -1.665550 -3.754248
 20
 27.602972
  C 1.982465 0.459966 -1.020960
  C 2.846890 -0.182496 0.002441
  C 3.258241 -1.430676 -0.214623
  C 4.667959 -1.655571 -0.110627
  C 5.247647 -1.944312 -1.286021
  C 6.512876 -1.424997 -1.664150
  C 6.976473 -1.418478 -2.919983
  C 8.255847 -0.790055 -3.342847
  H 1.702763 1.476440 -0.764878
  H 1.091103 -0.116022 -1.256700
  H 2.658053 0.455273 -1.905102
  H 3.400351 0.470341 0.661981
  H 2.710845 -2.053802 -0.908538
  H 5.225241 -1.193669 0.694662
  H 4.650526 -2.382865 -2.077727
  H 7.106421 -0.974791 -0.876480
  H 6.392932 -1.870400 -3.707728
  H 8.773270 -0.349747 -2.495672
  H 8.070685 -0.013600 -4.083658
  H 8.910230 -1.535726 -3.807000
 20
 34.359528
  C 2.210337 0.483465 -1.159644
  C 2.910355 -0.180954 -0.032313
  C 3.234600 -1.468717 -0.173168
  C 4.637706 -1.729650 -0.053074
  C 5.208902 -2.000094 -1.238431
  C 6.443981 -1.427937 -1.634694
  C 6.876594 -1.377992 -2.902556
  C 8.115511 -0.680789 -3.342443
  H 1.962236 1.520336 -0.961486
  H 1.326281 -0.049038 -1.493201
  H 2.994259 0.413308 -1.956922
  H 3.494786 0.458354 0.616710
  H 2.671559 -2.085485 -0.860907
  H 5.199598 -1.265374 0.748164
  H 4.612662 -2.447363 -2.024516
  H 7.036736 -0.967345 -0.851490
  H 6.289703 -1.837970 -3.688985
  H 8.633399 -0.236191 -2.499484
  H 7.876345 0.103586 -4.061404
  H 8.790299 -1.383993 -3.838061
 20
 41.479256
  C 2.457664 0.499977 -1.293784
  C 2.969137 -0.173451 -0.073813
  C 3.209965 -1.489289 -0.153589
  C 4.605304 -1.788414 -0.008448
  C 5.175241 -2.060015 -1.196913
  C 6.376950 -1.429866 -1.609008
  C 6.777972 -1.341149 -2.883874
  C 7.969720 -0.573431 -3.338666
  H 2.259914 1.557537 -1.154089
  H 1.588375 0.014893 -1.723323
  H 3.328293 0.350055 -1.988219
  H 3.564803 0.441163 0.589387
  H 2.635975 -2.095953 -0.844573
  H 5.167603 -1.313929 0.784188
  H 4.574155 -2.503752 -1.982767
  H 6.961481 -0.950579 -0.832516
  H 6.198069 -1.818045 -3.663757
  H 8.483919 -0.115965 -2.498301
  H 7.675159 0.208874 -4.037694
  H 8.667899 -1.232091 -3.860623
 20
 49.278830
  C 2.701761 0.504266 -1.404852
  C 3.029015 -0.153381 -0.116443
  C 3.176415 -1.490408 -0.150914
  C 4.560242 -1.834454 0.016417
  C 5.131725 -2.090561 -1.178181
  C 6.303691 -1.409511 -1.596795
  C 6.696621 -1.306996 -2.873172
  C 7.844255 -0.477043 -3.333620
  H 2.583536 1.579393 -1.326883
  H 1.840847 0.071644 -1.905912
  H 3.624856 0.250207 -2.005065
  H 3.634415 0.432126 0.567368
  H 2.597352 -2.072002 -0.856858
  H 5.123349 -1.373273 0.815254
  H 4.539100 -2.548629 -1.961805
  H 6.866895 -0.901674 -0.825240
  H 6.139935 -1.814766 -3.648644
  H 8.335268 0.012017 -2.493731
  H 7.505957 0.285940 -4.035166
  H 8.576174 -1.097499 -3.854425
 20
 57.154840
  C 2.940265 0.501889 -1.489123
  C 3.052747 -0.122142 -0.143103
  C 3.137696 -1.477819 -0.159160
  C 4.509186 -1.861382 0.020101
  C 5.087467 -2.109689 -1.182426
  C 6.232265 -1.375341 -1.603316
  C 6.635644 -1.275298 -2.875769
  C 7.753206 -0.400286 -3.335646
  H 2.890858 1.587070 -1.467074
  H 2.123375 0.106183 -2.084708
  H 3.907666 0.155588 -1.951496
  H 3.632539 0.430679 0.586341
  H 2.551976 -2.034556 -0.886964
  H 5.075494 -1.400771 0.818367
  H 4.500237 -2.571002 -1.966619
  H 6.768114 -0.835897 -0.836812
  H 6.111739 -1.815095 -3.647084
  H 8.210224 0.117677 -2.500601
  H 7.391959 0.336836 -4.048504
  H 8.518079 -0.994125 -3.840421
 20
 66.316685
  C 3.163348 0.491181 -1.539153
  C 3.079012 -0.095026 -0.179660
  C 3.100202 -1.456936 -0.207442
  C 4.452801 -1.861155 0.004165
  C 5.042229 -2.107963 -1.195379
  C 6.147955 -1.318585 -1.616755
  C 6.584877 -1.240657 -2.882767
  C 7.689818 -0.350327 -3.329786
  H 3.193864 1.575501 -1.544807
  H 2.385787 0.138285 -2.212374
  H 4.160867 0.060250 -1.900324
  H 3.637456 0.425623 0.587755
  H 2.534099 -1.981724 -0.975812
  H 5.011371 -1.392966 0.802968
  H 4.472401 -2.587610 -1.978133
  H 6.647134 -0.740707 -0.848141
  H 6.094762 -1.814954 -3.658180
  H 8.110569 0.199746 -2.490580
  H 7.330587 0.363736 -4.071844
  H 8.485363 -0.937595 -3.799095
 20
 76.058698
  C 3.416954 0.500966 -1.584285
  C 3.117529 -0.040150 -0.234765
  C 3.065082 -1.410213 -0.281149
  C 4.377203 -1.877605 -0.025112
  C 4.989884 -2.134447 -1.221883
  C 6.058519 -1.282735 -1.632682
  C 6.561747 -1.242133 -2.878352
  C 7.621940 -0.290609 -3.313956
  H 3.547090 1.578232 -1.596475
  H 2.690631 0.208560 -2.338691
  H 4.408071 -0.033354 -1.838092
  H 3.643622 0.436066 0.584454
  H 2.503354 -1.892184 -1.077478
  H 4.936044 -1.426442 0.786470
  H 4.445180 -2.641073 -2.008138
  H 6.498568 -0.656403 -0.866648
  H 6.147921 -1.880877 -3.647265
  H 7.958038 0.324260 -2.483593
  H 7.256168 0.362896 -4.105225
  H 8.479349 -0.838378 -3.712883
 20
 86.626513
  C 3.633084 0.534436 -1.613990
  C 3.162641 0.013193 -0.305494
  C 3.033138 -1.356521 -0.397939
  C 4.293568 -1.894843 -0.071660
  C 4.949815 -2.169669 -1.250586
  C 5.980312 -1.251203 -1.645172
  C 6.561469 -1.241004 -2.866371
  C 7.597460 -0.251736 -3.277168
  H 3.855505 1.596300 -1.591470
  H 2.955706 0.316880 -2.437634
  H 4.613066 -0.098697 -1.797834
  H 3.654374 0.433707 0.565662
  H 2.497565 -1.783125 -1.238483
  H 4.837422 -1.466590 0.760720
  H 4.433975 -2.687322 -2.047591
  H 6.390406 -0.620585 -0.864910
  H 6.209177 -1.913741 -3.634771
  H 7.861464 0.402412 -2.447547
  H 7.244691 0.363419 -4.106132
  H 8.499338 -0.767412 -3.614396
