 20
 0.000000
  H 1.509339 0.170412 0.475144
  C 2.590263 0.157522 0.443118
  C 3.314917 0.631579 1.622317
  C 2.429524 1.094634 2.773947
  C 3.264550 1.570235 3.958572
  C 3.175056 -0.308762 -0.716622
  C 4.553200 -0.399904 -0.944003
  C 5.084645 -0.874587 -2.126350
  H 4.475857 -1.209899 -2.959677
  O 6.349013 -0.975431 -2.379155
  H 3.982891 1.452786 1.331232
  H 3.982540 -0.162908 1.980641
  H 1.785146 0.274489 3.096058
  H 1.785741 1.910049 2.438888
  H 3.897538 0.770624 4.336197
  H 2.618516 1.896292 4.769613
  H 3.898221 2.408430 3.678232
  H 2.517160 -0.628879 -1.513130
  H 5.233409 -0.086480 -0.163601
  H 6.940345 -0.682409 -1.653464
 20
 9.657394
  H 1.512614 0.179264 0.496923
  C 2.593200 0.166974 0.466389
  C 3.311599 0.643525 1.651887
  C 2.413785 1.103600 2.796127
  C 3.236267 1.581836 3.987743
  C 3.181646 -0.298979 -0.692362
  C 4.548112 -0.385462 -0.908382
  C 5.131428 -0.916661 -2.230728
  H 4.505623 -1.246639 -3.049742
  O 6.379781 -1.016450 -2.481143
  H 3.979205 1.466424 1.366330
  H 3.978781 -0.148422 2.015355
  H 1.769292 0.281297 3.112448
  H 1.770022 1.916700 2.455474
  H 3.868662 0.784070 4.370606
  H 2.582125 1.905693 4.793299
  H 3.869485 2.422240 3.712636
  H 2.528068 -0.620488 -1.491962
  H 5.233500 -0.075484 -0.137390
  H 6.978471 -0.724427 -1.758787
 20
 29.189204
  H 1.527945 0.189691 0.522848
  C 2.607909 0.176952 0.490108
  C 3.317427 0.654808 1.678602
  C 2.397001 1.108448 2.808715
  C 3.197562 1.591683 4.013017
  C 3.197573 -0.286012 -0.661556
  C 4.562402 -0.363561 -0.856221
  C 5.165470 -0.956753 -2.329854
  H 4.481695 -1.267716 -3.100267
  O 6.389074 -1.055909 -2.576822
  H 3.981342 1.482034 1.400879
  H 3.981607 -0.134543 2.050227
  H 1.753565 0.281620 3.114532
  H 1.753505 1.917220 2.458042
  H 3.829578 0.797388 4.403560
  H 2.530125 1.911175 4.809193
  H 3.829679 2.435577 3.746243
  H 2.549033 -0.608328 -1.461889
  H 5.286919 -0.067568 -0.121816
  H 7.009837 -0.772464 -1.875290
 20
 51.656923
  H 1.523982 0.197513 0.542383
  C 2.604845 0.186794 0.513597
  C 3.310253 0.669630 1.714319
  C 2.378877 1.119916 2.837901
  C 3.167783 1.605923 4.049010
  C 3.208052 -0.278798 -0.645115
  C 4.553988 -0.349255 -0.822736
  C 5.203436 -1.000422 -2.437745
  H 4.494979 -1.305472 -3.192954
  O 6.434524 -1.099898 -2.683756
  H 3.973241 1.500041 1.442332
  H 3.974219 -0.117663 2.091795
  H 1.736057 0.290315 3.138240
  H 1.735199 1.926515 2.481962
  H 3.799625 0.813495 4.444070
  H 2.492893 1.922858 4.840220
  H 3.798891 2.452221 3.787015
  H 2.565849 -0.603623 -1.450758
  H 5.292262 -0.059539 -0.105008
  H 7.070131 -0.817249 -1.983834
 20
 73.410811
  H 1.524673 0.209240 0.571303
  C 2.603950 0.199349 0.545077
  C 3.300904 0.681236 1.743538
  C 2.359075 1.128092 2.857936
  C 3.136197 1.616512 4.075308
  C 3.213083 -0.264772 -0.609601
  C 4.568885 -0.330540 -0.775722
  C 5.247322 -1.041058 -2.538287
  H 4.510286 -1.335946 -3.268146
  O 6.457633 -1.139811 -2.783687
  H 3.962502 1.513512 1.476244
  H 3.963221 -0.104335 2.125881
  H 1.716501 0.296214 3.152605
  H 1.715970 1.932618 2.496143
  H 3.767126 0.825797 4.475067
  H 2.454037 1.931398 4.860964
  H 3.766794 2.464605 3.817910
  H 2.572853 -0.590371 -1.417339
  H 5.334689 -0.050177 -0.081548
  H 7.103998 -0.862175 -2.097734
 20
 92.185856
  H 1.547793 0.211749 0.575171
  C 2.623411 0.211011 0.569934
  C 3.300804 0.694232 1.772956
  C 2.334543 1.132413 2.868960
  C 3.085937 1.625234 4.100637
  C 3.258918 -0.243556 -0.561487
  C 4.600598 -0.292437 -0.689008
  C 5.249109 -1.074352 -2.614709
  H 4.448752 -1.347174 -3.281333
  O 6.440995 -1.186010 -2.892646
  H 3.958284 1.531849 1.517495
  H 3.959493 -0.087188 2.166317
  H 1.695586 0.293772 3.150904
  H 1.694805 1.933527 2.494855
  H 3.715585 0.838008 4.509669
  H 2.387835 1.934483 4.874662
  H 3.715189 2.477758 3.854060
  H 2.631508 -0.573538 -1.376089
  H 5.447019 -0.047612 -0.089183
  H 7.135201 -0.921302 -2.247023
 20
 108.543381
  H 1.539590 0.219581 0.594408
  C 2.616741 0.226029 0.605287
  C 3.285128 0.715333 1.823399
  C 2.308056 1.149253 2.911955
  C 3.044641 1.644681 4.150918
  C 3.282664 -0.232600 -0.537465
  C 4.610086 -0.276974 -0.656903
  C 5.289717 -1.120679 -2.727123
  H 4.484147 -1.397661 -3.400546
  O 6.479328 -1.246367 -3.037797
  H 3.940829 1.556910 1.573160
  H 3.943296 -0.064767 2.222328
  H 1.668747 0.308060 3.187219
  H 1.666923 1.947335 2.532431
  H 3.674062 0.860249 4.565664
  H 2.337404 1.950246 4.918065
  H 3.672621 2.500060 3.911048
  H 2.663794 -0.566419 -1.359703
  H 5.478325 -0.043369 -0.088448
  H 7.192729 -0.984125 -2.399223
 20
 121.458705
  H 1.536480 0.226614 0.613281
  C 2.615732 0.236661 0.635657
  C 3.275377 0.729705 1.862256
  C 2.284749 1.162242 2.942859
  C 3.007860 1.661288 4.189433
  C 3.293882 -0.219648 -0.499854
  C 4.618972 -0.261219 -0.611143
  C 5.325863 -1.160668 -2.829448
  H 4.517584 -1.434183 -3.497274
  O 6.509336 -1.291797 -3.157105
  H 3.931599 1.574292 1.616975
  H 3.932844 -0.049439 2.268224
  H 1.645236 0.319418 3.212496
  H 1.644836 1.958052 2.556449
  H 3.635537 0.879289 4.610896
  H 2.292120 1.965330 4.949330
  H 3.635480 2.518182 3.955020
  H 2.680761 -0.553855 -1.325504
  H 5.502161 -0.037571 -0.065199
  H 7.227255 -1.034431 -2.530090
 20
 130.916900
  H 1.540302 0.239387 0.645873
  C 2.617255 0.253000 0.679613
  C 3.260368 0.745317 1.903878
  C 2.259276 1.174951 2.972942
  C 2.968946 1.676555 4.224943
  C 3.311688 -0.203734 -0.455417
  C 4.629700 -0.244701 -0.563623
  C 5.359811 -1.200381 -2.930903
  H 4.548956 -1.475498 -3.604767
  O 6.537171 -1.340429 -3.284195
  H 3.915221 1.589960 1.663774
  H 3.915113 -0.030724 2.314929
  H 1.619871 0.330642 3.236998
  H 1.621052 1.968443 2.579995
  H 3.594906 0.896634 4.652906
  H 2.245154 1.978976 4.977529
  H 3.596365 2.535124 3.995810
  H 2.702209 -0.539210 -1.286292
  H 5.526441 -0.028784 -0.034694
  H 7.265567 -1.084770 -2.661807
 20
 136.948957
  H 1.538611 0.249510 0.671317
  C 2.616840 0.267526 0.717782
  C 3.244412 0.761896 1.946960
  C 2.231013 1.189783 3.008754
  C 2.929470 1.694079 4.266918
  C 3.324621 -0.187799 -0.412630
  C 4.640734 -0.228876 -0.519496
  C 5.396681 -1.241183 -3.034605
  H 4.592183 -1.518505 -3.715160
  O 6.570291 -1.390459 -3.413158
  H 3.900449 1.608544 1.711900
  H 3.899351 -0.012444 2.363918
  H 1.591606 0.343831 3.268160
  H 1.593856 1.981663 2.610337
  H 3.553958 0.916214 4.700725
  H 2.198495 1.994883 5.013261
  H 3.556455 2.554281 4.042896
  H 2.719403 -0.524385 -1.247733
  H 5.543498 -0.018055 -0.001171
  H 7.299665 -1.137277 -2.797165
 20
 140.900356
  H 1.533173 0.261975 0.702171
  C 2.610829 0.284490 0.759346
  C 3.222990 0.779340 1.989804
  C 2.203063 1.204026 3.044891
  C 2.894315 1.709618 4.305856
  C 3.330965 -0.169401 -0.368282
  C 4.645410 -0.210268 -0.473933
  C 5.435092 -1.280622 -3.133840
  H 4.637816 -1.562656 -3.826698
  O 6.606442 -1.439586 -3.534662
  H 3.878984 1.626339 1.759155
  H 3.878427 0.008064 2.409888
  H 1.564775 0.356875 3.301102
  H 1.566405 1.994196 2.643699
  H 3.518452 0.933441 4.742919
  H 2.159033 2.008513 5.048353
  H 3.520257 2.571375 4.085266
  H 2.730194 -0.507611 -1.207676
  H 5.552128 -0.001717 0.040409
  H 7.339095 -1.187657 -2.919596
 20
 143.429244
  H 1.525910 0.273256 0.730695
  C 2.604028 0.299973 0.799149
  C 3.201545 0.796621 2.033800
  C 2.173334 1.219560 3.083441
  C 2.857323 1.727217 4.348373
  C 3.335186 -0.151943 -0.323243
  C 4.649703 -0.192535 -0.426573
  C 5.473882 -1.318912 -3.231839
  H 4.684057 -1.604324 -3.935178
  O 6.642930 -1.486172 -3.652891
  H 3.859248 1.644769 1.807474
  H 3.858547 0.027557 2.458163
  H 1.535353 0.371081 3.336784
  H 1.537107 2.008592 2.678750
  H 3.480708 0.952713 4.789482
  H 2.117271 2.024832 5.086806
  H 3.482553 2.590373 4.131240
  H 2.739597 -0.491241 -1.166762
  H 5.558499 0.013657 0.084438
  H 7.375456 -1.236416 -3.040959
 20
 145.056314
  H 1.517950 0.286298 0.763148
  C 2.595561 0.317045 0.842195
  C 3.178271 0.814805 2.079551
  C 2.143180 1.235111 3.122169
  C 2.819144 1.744313 4.390333
  C 3.337857 -0.133039 -0.275447
  C 4.651977 -0.172786 -0.375548
  C 5.510595 -1.355798 -3.325923
  H 4.726283 -1.644057 -4.038000
  O 6.677255 -1.530746 -3.765099
  H 3.837025 1.663283 1.858024
  H 3.836262 0.048830 2.507702
  H 1.505938 0.385596 3.372196
  H 1.507747 2.022505 2.714145
  H 3.441630 0.971507 4.835341
  H 2.074359 2.040306 5.124339
  H 3.443463 2.608872 4.176874
  H 2.747846 -0.473725 -1.123312
  H 5.563360 0.031655 0.132899
  H 7.412112 -1.282616 -3.154835
 20
 146.092473
  H 1.509862 0.299365 0.795595
  C 2.587087 0.334056 0.886161
  C 3.154696 0.833668 2.127984
  C 2.110449 1.251873 3.163148
  C 2.776607 1.763343 4.436196
  C 3.340807 -0.113893 -0.225041
  C 4.654946 -0.152620 -0.320582
  C 5.544850 -1.391343 -3.417323
  H 4.764128 -1.681308 -4.135734
  O 6.709013 -1.572438 -3.872391
  H 3.815301 1.683013 1.911848
  H 3.813864 0.070475 2.561185
  H 1.473365 0.400900 3.409259
  H 1.475930 2.037814 2.750515
  H 3.397696 0.992348 4.886335
  H 2.025746 2.057824 5.164747
  H 3.400235 2.629527 4.227162
  H 2.757149 -0.455702 -1.077419
  H 5.570063 0.048722 0.182775
  H 7.444256 -1.325688 -3.264305
