 25
 0.000000
  C 0.959493 0.146603 0.415901
  C 2.432433 0.139784 0.398745
  C 3.230835 0.604160 1.554496
  C 2.467805 1.095690 2.778393
  H 3.162864 1.405342 3.549377
  C 3.039042 -0.327502 -0.764544
  C 4.421789 -0.413651 -0.979853
  C 5.090956 -0.860409 -2.093693
  C 4.626885 -1.380694 -3.390456
  C 3.145268 -1.508702 -3.709569
  H 3.021198 -1.909656 -4.709085
  H 6.171587 -0.843542 -2.052126
  H 0.538080 0.518781 1.342031
  H 0.583126 -0.863299 0.245590
  H 0.582928 0.757756 -0.405851
  H 3.890242 1.409726 1.211955
  H 3.890391 -0.214393 1.864387
  H 1.836323 0.307997 3.184581
  H 1.836289 1.945496 2.526961
  H 2.375086 -0.643371 -1.550639
  H 5.043055 -0.083139 -0.157000
  H 5.100027 -2.364383 -3.510789
  H 5.100130 -0.753055 -4.157361
  H 2.656452 -0.537578 -3.674595
  H 2.656463 -2.186441 -3.013166
 25
 4.737656
  C 0.992378 0.137354 0.392456
  C 2.449760 0.150100 0.423681
  C 3.211838 0.618347 1.589342
  C 2.409202 1.099879 2.789561
  H 3.090733 1.416120 3.577278
  C 3.109572 -0.300526 -0.698459
  C 4.467743 -0.407159 -0.964043
  C 5.086134 -0.872683 -2.124254
  C 4.581906 -1.385466 -3.402015
  C 3.089612 -1.501180 -3.690468
  H 2.956086 -1.903986 -4.694224
  H 6.172011 -0.860815 -2.094788
  H 0.543873 0.504390 1.305986
  H 0.636827 -0.876472 0.197526
  H 0.636457 0.734282 -0.449669
  H 3.877903 1.423759 1.258550
  H 3.878402 -0.191824 1.907252
  H 1.780688 0.309054 3.190600
  H 1.780367 1.948371 2.532790
  H 2.657664 -0.657531 -1.587492
  H 5.157045 -0.091936 -0.178658
  H 5.052333 -2.370700 -3.537934
  H 5.052524 -0.767741 -4.181458
  H 2.599425 -0.531252 -3.660262
  H 2.599295 -2.181161 -2.998187
 25
 14.526776
  C 1.019227 0.123393 0.358832
  C 2.476721 0.154547 0.435055
  C 3.200897 0.630939 1.619654
  C 2.362274 1.101136 2.792207
  H 3.017581 1.425248 3.598634
  C 3.182827 -0.284682 -0.658390
  C 4.525611 -0.403175 -0.952738
  C 5.086046 -0.877817 -2.135946
  C 4.533052 -1.386005 -3.403331
  C 3.040768 -1.489944 -3.663923
  H 2.893784 -1.891955 -4.666648
  H 6.170640 -0.882478 -2.146971
  H 0.537965 0.485045 1.257991
  H 0.685071 -0.890501 0.150419
  H 0.684437 0.710091 -0.493674
  H 3.868588 1.438407 1.305731
  H 3.869928 -0.168382 1.951005
  H 1.733504 0.301954 3.176377
  H 1.732564 1.943612 2.517456
  H 2.912188 -0.661395 -1.596716
  H 5.263448 -0.106594 -0.212724
  H 4.989480 -2.370232 -3.553243
  H 4.990188 -0.778710 -4.191787
  H 2.553570 -0.517037 -3.632424
  H 2.552883 -2.171395 -2.969133
 25
 27.807995
  C 1.015478 0.113016 0.333122
  C 2.480445 0.156733 0.439693
  C 3.192655 0.641085 1.644297
  C 2.341730 1.110802 2.816592
  H 2.988073 1.436110 3.626384
  C 3.213577 -0.277552 -0.641715
  C 4.556513 -0.410215 -0.970830
  C 5.083357 -0.883524 -2.150060
  C 4.513512 -1.386388 -3.403618
  C 3.010825 -1.487270 -3.657367
  H 2.858994 -1.887959 -4.656271
  H 6.167653 -0.896240 -2.180563
  H 0.510785 0.470226 1.221940
  H 0.692845 -0.910014 0.115966
  H 0.691671 0.700252 -0.531812
  H 3.864448 1.453258 1.334005
  H 3.866072 -0.159155 1.981014
  H 1.712672 0.309805 3.196176
  H 1.711671 1.951385 2.537667
  H 3.096589 -0.665383 -1.607894
  H 5.337587 -0.120926 -0.248015
  H 4.968316 -2.380276 -3.556802
  H 4.969417 -0.774874 -4.201386
  H 2.524341 -0.515512 -3.624081
  H 2.523309 -2.165970 -2.962074
 25
 42.323758
  C 1.021360 0.101083 0.306139
  C 2.484199 0.151594 0.428120
  C 3.182650 0.640365 1.641374
  C 2.315971 1.107146 2.805616
  H 2.952229 1.436098 3.622755
  C 3.230282 -0.275945 -0.636151
  C 4.590228 -0.415892 -0.982541
  C 5.107728 -0.892107 -2.169760
  C 4.500542 -1.388338 -3.408734
  C 2.990092 -1.462768 -3.598916
  H 2.790250 -1.860570 -4.591942
  H 6.186994 -0.911422 -2.215913
  H 0.506297 0.457002 1.191224
  H 0.705467 -0.924985 0.085212
  H 0.703882 0.687161 -0.564005
  H 3.857108 1.456121 1.336674
  H 3.859363 -0.157842 1.985145
  H 1.686659 0.303835 3.178883
  H 1.684997 1.944354 2.519917
  H 3.254461 -0.665634 -1.606920
  H 5.383037 -0.137103 -0.285108
  H 4.934820 -2.383848 -3.577421
  H 4.936686 -0.786178 -4.218155
  H 2.521384 -0.482614 -3.544703
  H 2.519339 -2.133128 -2.883298
 25
 55.153573
  C 1.009344 0.099570 0.333383
  C 2.471825 0.153651 0.440259
  C 3.171468 0.648447 1.642040
  C 2.315318 1.113528 2.802358
  H 2.954735 1.447403 3.613279
  C 3.212134 -0.277626 -0.633035
  C 4.583181 -0.432850 -0.994452
  C 5.111339 -0.901034 -2.171730
  C 4.507914 -1.394578 -3.428123
  C 2.993317 -1.461071 -3.622785
  H 2.790091 -1.853329 -4.617579
  H 6.197305 -0.921059 -2.205949
  H 0.503663 0.456613 1.219098
  H 0.694463 -0.922430 0.120147
  H 0.684783 0.678967 -0.531449
  H 3.837580 1.461133 1.333362
  H 3.849161 -0.141478 1.983083
  H 1.691777 0.309692 3.181166
  H 1.680376 1.946445 2.516880
  H 3.342488 -0.666424 -1.606284
  H 5.377667 -0.159459 -0.284446
  H 4.938443 -2.394481 -3.599443
  H 4.949456 -0.787260 -4.234822
  H 2.530587 -0.478518 -3.562864
  H 2.519057 -2.131256 -2.909126
 25
 64.142266
  C 0.979332 0.041775 0.334059
  C 2.479202 0.123522 0.392838
  C 3.192555 0.678202 1.612990
  C 2.314026 1.130119 2.762472
  H 2.947127 1.488984 3.568601
  C 3.191712 -0.288363 -0.633161
  C 4.569994 -0.496756 -1.034912
  C 5.143399 -0.937928 -2.178388
  C 4.531243 -1.400095 -3.447949
  C 3.018174 -1.389558 -3.558957
  H 2.740361 -1.749395 -4.543977
  H 6.224110 -0.973647 -2.196454
  H 0.511377 0.415513 1.233727
  H 0.653016 -0.983662 0.169213
  H 0.627520 0.621834 -0.517853
  H 3.828263 1.511266 1.302498
  H 3.874074 -0.104871 1.958780
  H 1.711703 0.313341 3.149250
  H 1.660844 1.947968 2.470836
  H 3.385788 -0.685120 -1.638451
  H 5.323065 -0.246758 -0.272727
  H 4.911233 -2.404752 -3.647722
  H 4.963613 -0.785342 -4.241835
  H 2.606652 -0.387025 -3.457771
  H 2.551904 -2.057761 -2.835597
 25
 67.859607
  C 0.960809 0.021933 0.376710
  C 2.461964 0.112384 0.401133
  C 3.186862 0.697664 1.609732
  C 2.309497 1.157050 2.761928
  H 2.951822 1.538704 3.549144
  C 3.168327 -0.299060 -0.617346
  C 4.549065 -0.550934 -1.074769
  C 5.164992 -0.969852 -2.193514
  C 4.565924 -1.406537 -3.487614
  C 3.046352 -1.357840 -3.580757
  H 2.740581 -1.698234 -4.572649
  H 6.242300 -1.013510 -2.180467
  H 0.520530 0.404175 1.286439
  H 0.649993 -1.012402 0.245875
  H 0.577194 0.594901 -0.467502
  H 3.792908 1.538475 1.266954
  H 3.874292 -0.074659 1.967177
  H 1.728689 0.342529 3.177286
  H 1.643950 1.960311 2.466357
  H 3.400436 -0.701849 -1.636037
  H 5.256356 -0.319297 -0.261830
  H 4.922092 -2.418568 -3.692720
  H 5.006782 -0.782060 -4.269528
  H 2.661533 -0.341625 -3.467935
  H 2.571099 -2.030862 -2.863717
 25
 72.223951
  C 0.970943 -0.028891 0.417239
  C 2.464593 0.096786 0.427376
  C 3.182153 0.738092 1.612232
  C 2.293609 1.206785 2.753381
  H 2.928087 1.633523 3.529315
  C 3.168465 -0.325157 -0.590743
  C 4.551760 -0.624080 -1.078998
  C 5.166008 -1.020217 -2.202119
  C 4.564952 -1.399843 -3.516477
  C 3.055696 -1.300531 -3.619707
  H 2.752565 -1.596568 -4.603205
  H 6.247978 -1.094170 -2.175515
  H 0.531851 0.366858 1.319550
  H 0.685670 -1.077144 0.317589
  H 0.564368 0.509877 -0.435395
  H 3.758176 1.586502 1.238759
  H 3.890103 -0.001470 1.991438
  H 1.735977 0.381230 3.198751
  H 1.599628 1.983900 2.434073
  H 3.436642 -0.732376 -1.595313
  H 5.233525 -0.443640 -0.239440
  H 4.888481 -2.418217 -3.746074
  H 5.028629 -0.765382 -4.275329
  H 2.710811 -0.291813 -3.480012
  H 2.560760 -1.967408 -2.932098
 25
 75.950385
  C 0.962994 -0.083882 0.458769
  C 2.457127 0.075077 0.446565
  C 3.175350 0.772982 1.598524
  C 2.294615 1.257922 2.733900
  H 2.924792 1.722819 3.480781
  C 3.153036 -0.361609 -0.569300
  C 4.550749 -0.695888 -1.066284
  C 5.171768 -1.066691 -2.200050
  C 4.577941 -1.383093 -3.529517
  C 3.065077 -1.235800 -3.647453
  H 2.761130 -1.494549 -4.660970
  H 6.244949 -1.167886 -2.158763
  H 0.527047 0.329080 1.353712
  H 0.700677 -1.140142 0.394428
  H 0.531357 0.419790 -0.406262
  H 3.724601 1.620287 1.188167
  H 3.906409 0.064775 1.991958
  H 1.768782 0.442210 3.211108
  H 1.583017 2.001493 2.401266
  H 3.469616 -0.784484 -1.566121
  H 5.213616 -0.564044 -0.200797
  H 4.874564 -2.400575 -3.789168
  H 5.067750 -0.737441 -4.260514
  H 2.744980 -0.209156 -3.471319
  H 2.537123 -1.916230 -2.977780
 25
 78.925450
  C 0.946733 -0.140505 0.515710
  C 2.436548 0.048079 0.459973
  C 3.167731 0.806487 1.565444
  C 2.304560 1.317932 2.707750
  H 2.948668 1.828381 3.424040
  C 3.114213 -0.408742 -0.556104
  C 4.528737 -0.778228 -1.050887
  C 5.167399 -1.114687 -2.189294
  C 4.594790 -1.357748 -3.540666
  C 3.092592 -1.163583 -3.677500
  H 2.798703 -1.369410 -4.705434
  H 6.239408 -1.244540 -2.128411
  H 0.522165 0.296567 1.409928
  H 0.707073 -1.197786 0.494914
  H 0.484726 0.321051 -0.352488
  H 3.688778 1.650647 1.106779
  H 3.927401 0.127779 1.966750
  H 1.807227 0.506142 3.232788
  H 1.563881 2.037064 2.364124
  H 3.480886 -0.854901 -1.548901
  H 5.166344 -0.705738 -0.162470
  H 4.869633 -2.375455 -3.840122
  H 5.118173 -0.692003 -4.238025
  H 2.799767 -0.139564 -3.458937
  H 2.536429 -1.853948 -3.046209
 25
 81.659286
  C 0.927888 -0.187606 0.582276
  C 2.409435 0.020246 0.473896
  C 3.161964 0.833462 1.521131
  C 2.332863 1.374111 2.664288
  H 2.988680 1.920505 3.334534
  C 3.065670 -0.463700 -0.548378
  C 4.488834 -0.855520 -1.027508
  C 5.157578 -1.153108 -2.161560
  C 4.619733 -1.323884 -3.539405
  C 3.123106 -1.090427 -3.710256
  H 2.853328 -1.242431 -4.753349
  H 6.223896 -1.305728 -2.073045
  H 0.522740 0.276481 1.473449
  H 0.704773 -1.255888 0.607741
  H 0.430102 0.235255 -0.290343
  H 3.653818 1.667227 1.011180
  H 3.945307 0.183509 1.923418
  H 1.868479 0.579701 3.235062
  H 1.573043 2.063142 2.318937
  H 3.479905 -0.931315 -1.527356
  H 5.090917 -0.838166 -0.123178
  H 4.883413 -2.335392 -3.878536
  H 5.177786 -0.638046 -4.192436
  H 2.846611 -0.071801 -3.449732
  H 2.534451 -1.795517 -3.124653
 25
 82.956184
  C 0.932018 -0.257791 0.630278
  C 2.410532 -0.024596 0.477405
  C 3.170459 0.864072 1.464706
  C 2.347499 1.446821 2.613980
  H 3.008821 2.049065 3.241760
  C 3.046970 -0.530488 -0.534873
  C 4.445827 -0.947276 -1.004339
  C 5.140620 -1.205327 -2.141006
  C 4.634002 -1.288086 -3.529842
  C 3.152556 -0.985902 -3.718277
  H 2.898674 -1.076833 -4.767505
  H 6.198369 -1.404924 -2.031864
  H 0.537657 0.236055 1.507885
  H 0.733455 -1.318463 0.706837
  H 0.408652 0.112786 -0.242326
  H 3.623047 1.679281 0.902310
  H 3.979933 0.258284 1.875907
  H 1.917332 0.663738 3.242944
  H 1.551668 2.102496 2.251502
  H 3.473424 -0.997528 -1.512403
  H 5.023599 -0.987798 -0.072117
  H 4.863178 -2.282319 -3.910011
  H 5.227678 -0.600789 -4.131369
  H 2.912546 0.029265 -3.413636
  H 2.524534 -1.691846 -3.178761
 25
 85.090142
  C 0.941322 -0.243864 0.637643
  C 2.419920 -0.020441 0.498805
  C 3.170949 0.885879 1.475714
  C 2.340897 1.482154 2.600483
  H 2.989021 2.087506 3.220674
  C 3.065246 -0.541761 -0.506358
  C 4.465196 -0.976851 -1.004223
  C 5.153243 -1.223740 -2.144827
  C 4.640266 -1.278054 -3.540650
  C 3.154770 -0.952622 -3.719727
  H 2.893097 -1.018667 -4.775886
  H 6.197888 -1.435922 -2.040836
  H 0.541192 0.263011 1.501849
  H 0.739099 -1.304543 0.727002
  H 0.427634 0.114557 -0.247193
  H 3.630454 1.693047 0.902395
  H 3.971996 0.281944 1.908369
  H 1.908931 0.714910 3.229696
  H 1.556679 2.125622 2.223542
  H 3.504944 -1.044630 -1.505044
  H 5.035854 -1.027998 -0.083855
  H 4.855775 -2.274329 -3.940459
  H 5.241881 -0.574639 -4.134249
  H 2.929117 0.060038 -3.392441
  H 2.517511 -1.664319 -3.189891
