 17
 0.000000
  C 0.984336 0.127925 0.361744
  C 2.445873 0.091748 0.280045
  H 3.026206 0.428724 1.128413
  C 3.094513 -0.359649 -0.845317
  C 4.484149 -0.403446 -0.955266
  C 5.191528 -0.850974 -2.073724
  C 4.587373 -1.352460 -3.321531
  H 3.505370 -1.350876 -3.314215
  O 6.498723 -0.851791 -2.082160
  H 0.623623 0.511913 1.309644
  H 0.580659 -0.873681 0.193893
  H 0.579369 0.734579 -0.451974
  H 2.487577 -0.691847 -1.675243
  H 5.064259 -0.063031 -0.106706
  H 4.954023 -2.361803 -3.510125
  H 4.952096 -0.752754 -4.155850
  H 6.925080 -0.523711 -1.266195
 17
 1.757069
  C 1.008565 0.024200 0.450041
  C 2.415525 0.287137 0.149563
  H 2.970897 0.935658 0.813932
  C 3.060860 -0.260385 -0.936128
  C 4.449970 -0.346572 -1.008193
  C 5.185804 -0.911207 -2.053512
  C 4.627901 -1.270138 -3.371165
  H 3.554113 -1.152033 -3.425260
  O 6.466700 -1.133038 -1.934411
  H 0.723112 0.406672 1.424331
  H 0.823284 -1.049991 0.401664
  H 0.357340 0.472094 -0.304971
  H 2.456752 -0.691746 -1.722122
  H 5.000601 -0.028896 -0.130797
  H 4.908792 -2.293151 -3.620005
  H 5.096208 -0.642086 -4.130131
  H 6.859278 -0.883693 -1.075982
 17
 8.722350
  C 1.081700 -0.083463 0.523612
  C 2.357863 0.438363 0.034473
  H 2.787926 1.301719 0.525262
  C 3.035864 -0.131054 -1.033238
  C 4.401595 -0.362224 -1.022568
  C 5.147370 -0.958553 -2.040663
  C 4.647764 -1.212882 -3.406650
  H 3.595988 -0.987412 -3.522586
  O 6.386567 -1.325171 -1.845385
  H 0.818561 0.340763 1.486879
  H 1.159102 -1.168711 0.597252
  H 0.265116 0.123312 -0.173178
  H 2.444578 -0.475006 -1.873760
  H 4.919186 -0.148072 -0.095388
  H 4.843341 -2.249437 -3.678968
  H 5.222373 -0.605999 -4.107087
  H 6.735484 -1.155466 -0.950106
 17
 19.902148
  C 1.188931 -0.148214 0.604586
  C 2.297709 0.546078 -0.048311
  H 2.555571 1.545645 0.276242
  C 3.026550 -0.028895 -1.108917
  C 4.337617 -0.421950 -1.011300
  C 5.108130 -1.003631 -2.023048
  C 4.672605 -1.168379 -3.424354
  H 3.639864 -0.887816 -3.584356
  O 6.316055 -1.442023 -1.781877
  H 0.922726 0.320197 1.546414
  H 1.461985 -1.192249 0.755823
  H 0.293713 -0.151726 -0.027034
  H 2.483059 -0.198879 -2.034084
  H 4.806107 -0.315478 -0.040830
  H 4.831833 -2.200791 -3.733994
  H 5.312177 -0.560787 -4.064998
  H 6.624530 -1.330343 -0.862805
 17
 27.748878
  C 1.311375 -0.178121 0.693644
  C 2.228762 0.611817 -0.124491
  H 2.281655 1.680569 0.032197
  C 3.038628 0.051336 -1.160415
  C 4.270822 -0.512098 -0.978303
  C 5.065114 -1.055510 -2.004054
  C 4.684354 -1.125567 -3.428189
  H 3.664979 -0.817215 -3.616615
  O 6.263426 -1.510865 -1.749176
  H 1.009052 0.345383 1.595663
  H 1.693603 -1.173363 0.922830
  H 0.409517 -0.358106 0.096769
  H 2.612618 0.094245 -2.158948
  H 4.681913 -0.508274 0.022593
  H 4.834324 -2.141289 -3.791770
  H 5.366265 -0.498684 -4.004723
  H 6.543570 -1.454623 -0.815765
 17
 14.481131
  C 1.442199 -0.206075 0.763455
  C 2.175931 0.609495 -0.197530
  H 1.991595 1.677512 -0.191776
  C 3.037387 0.115377 -1.179890
  C 4.207182 -0.594504 -0.975428
  C 5.014812 -1.082446 -2.003684
  C 4.674232 -1.058007 -3.441565
  H 3.664363 -0.725060 -3.639001
  O 6.192418 -1.598392 -1.749275
  H 1.126185 0.359860 1.635143
  H 1.951828 -1.127379 1.038219
  H 0.530513 -0.537843 0.251753
  H 2.764409 0.375020 -2.198734
  H 4.549919 -0.710293 0.043420
  H 4.816834 -2.054802 -3.856578
  H 5.381754 -0.411641 -3.962285
  H 6.444870 -1.612559 -0.807051
 17
 5.474197
  C 1.590493 -0.228694 0.823279
  C 2.124827 0.600601 -0.252805
  H 1.698398 1.589705 -0.360838
  C 3.040493 0.194289 -1.201032
  C 4.142242 -0.634602 -0.991169
  C 4.962533 -1.104414 -2.018189
  C 4.656369 -0.996864 -3.458262
  H 3.657717 -0.630701 -3.657040
  O 6.095042 -1.706660 -1.759765
  H 1.288865 0.362055 1.684652
  H 2.237893 -1.054833 1.099924
  H 0.673837 -0.691228 0.438556
  H 2.916983 0.623447 -2.189896
  H 4.414191 -0.861585 0.030419
  H 4.786506 -1.975306 -3.919439
  H 5.389813 -0.342361 -3.933183
  H 6.323201 -1.781653 -0.813749
 17
 1.836623
  C 1.742002 -0.184482 0.922566
  C 2.052355 0.542324 -0.305044
  H 1.423880 1.395926 -0.520980
  C 2.991156 0.193468 -1.248916
  C 4.061600 -0.680893 -1.043821
  C 4.915022 -1.138900 -2.051347
  C 4.706570 -0.916167 -3.494480
  H 3.730715 -0.511157 -3.726087
  O 5.982303 -1.834900 -1.767317
  H 1.510826 0.501352 1.733811
  H 2.501794 -0.901390 1.215537
  H 0.813422 -0.747524 0.749416
  H 2.907951 0.671201 -2.216260
  H 4.268424 -1.002930 -0.032325
  H 4.852613 -1.857623 -4.022987
  H 5.480415 -0.241956 -3.868249
  H 6.148655 -1.982630 -0.816420
 17
 4.238537
  C 1.744650 -0.322882 0.770974
  C 2.109846 0.600955 -0.301930
  H 1.455288 1.445820 -0.464823
  C 3.156526 0.406822 -1.161211
  C 4.215673 -0.501579 -0.966970
  C 4.921257 -1.104012 -2.007490
  C 4.510697 -1.040405 -3.424122
  H 3.560577 -0.541878 -3.564493
  O 5.976066 -1.842378 -1.784047
  H 1.415872 0.213901 1.658774
  H 2.541472 -1.026458 0.986626
  H 0.879591 -0.908186 0.444365
  H 3.181817 1.009771 -2.060698
  H 4.556088 -0.673006 0.045871
  H 4.462166 -2.050663 -3.828679
  H 5.285870 -0.529937 -3.997592
  H 6.273603 -1.884310 -0.855240
 17
 10.706731
  C 1.802585 -0.456921 0.552030
  C 2.147104 0.655968 -0.340168
  H 1.479509 1.502668 -0.397855
  C 3.261743 0.594713 -1.109209
  C 4.317485 -0.344963 -0.897750
  C 4.898839 -1.081655 -1.923450
  C 4.323071 -1.152909 -3.281736
  H 3.388846 -0.611182 -3.360910
  O 5.946554 -1.840420 -1.730091
  H 1.362878 -0.119354 1.485068
  H 2.695903 -1.070086 0.670310
  H 1.074734 -1.111781 0.065793
  H 3.390573 1.302676 -1.920821
  H 4.821547 -0.305803 0.059886
  H 4.176458 -2.194393 -3.565077
  H 5.046108 -0.753348 -3.994218
  H 6.344356 -1.791854 -0.840224
 17
 20.035623
  C 1.908180 -0.530252 0.379272
  C 2.149501 0.697739 -0.396593
  H 1.451279 1.519105 -0.355076
  C 3.288994 0.730696 -1.111214
  C 4.313097 -0.266076 -0.841682
  C 4.846987 -1.080555 -1.837617
  C 4.203931 -1.228174 -3.158478
  H 3.274696 -0.673605 -3.220534
  O 5.895548 -1.837113 -1.640960
  H 1.453950 -0.368237 1.347611
  H 2.919087 -0.996938 0.356054
  H 1.345521 -1.279399 -0.182409
  H 3.507637 1.503672 -1.835581
  H 4.931319 -0.062359 0.025143
  H 4.030082 -2.281769 -3.374428
  H 4.894006 -0.881506 -3.928946
  H 6.329833 -1.741403 -0.772302
 17
 31.506863
  C 1.998310 -0.555504 0.282063
  C 2.120393 0.704645 -0.456782
  H 1.377021 1.480939 -0.368949
  C 3.256912 0.808360 -1.154316
  C 4.251854 -0.226734 -0.791263
  C 4.807567 -1.075281 -1.762898
  C 4.161738 -1.276068 -3.075271
  H 3.221463 -0.741141 -3.146767
  O 5.876635 -1.795260 -1.544491
  H 1.570539 -0.504041 1.272611
  H 3.177561 -0.867872 0.114379
  H 1.651368 -1.416843 -0.287332
  H 3.505116 1.591269 -1.850419
  H 4.930837 0.095009 -0.004523
  H 4.010109 -2.339296 -3.259838
  H 4.835937 -0.937526 -3.861296
  H 6.308540 -1.666556 -0.678829
 17
 37.965055
  C 1.939984 -0.532015 0.267635
  C 2.100241 0.688402 -0.479716
  H 1.351318 1.464687 -0.427728
  C 3.254448 0.803325 -1.153027
  C 4.254043 -0.236536 -0.746026
  C 4.831984 -1.075587 -1.746986
  C 4.161089 -1.299493 -3.037943
  H 3.196009 -0.807057 -3.079977
  O 5.934812 -1.736418 -1.558837
  H 1.476758 -0.487022 1.242020
  H 3.465240 -0.820778 -0.005613
  H 1.747356 -1.450024 -0.269936
  H 3.506816 1.581895 -1.850445
  H 4.964418 0.148219 -0.011449
  H 4.053625 -2.368503 -3.221443
  H 4.794726 -0.928900 -3.844880
  H 6.384057 -1.590577 -0.704025
 17
 33.886475
  C 1.775236 -0.475601 0.284193
  C 2.103188 0.662779 -0.477101
  H 1.402954 1.488704 -0.500432
  C 3.295130 0.746253 -1.113100
  C 4.322099 -0.270012 -0.711705
  C 4.897246 -1.073565 -1.772229
  C 4.162639 -1.317147 -3.017882
  H 3.162157 -0.899863 -2.983482
  O 6.046799 -1.642888 -1.664072
  H 1.168918 -0.365251 1.169073
  H 3.701435 -0.891292 -0.001835
  H 1.762401 -1.457735 -0.156175
  H 3.549900 1.525009 -1.810475
  H 5.072490 0.174726 -0.050905
  H 4.129749 -2.387154 -3.224837
  H 4.708140 -0.880916 -3.856536
  H 6.539604 -1.486185 -0.833243
 17
 24.044369
  C 1.531206 -0.395075 0.268973
  C 2.074916 0.633655 -0.456317
  H 1.466673 1.516763 -0.602058
  C 3.334174 0.647048 -1.019660
  C 4.395269 -0.338740 -0.659077
  C 4.929895 -1.096612 -1.798761
  C 4.125847 -1.307905 -3.000497
  H 3.101251 -0.977905 -2.863389
  O 6.110894 -1.586013 -1.798631
  H 0.592002 -0.266582 0.774211
  H 3.972671 -1.033454 0.079222
  H 1.971259 -1.375045 0.319066
  H 3.603335 1.434813 -1.702299
  H 5.203504 0.185655 -0.136036
  H 4.166909 -2.358073 -3.292547
  H 4.568506 -0.768600 -3.840837
  H 6.651773 -1.464067 -0.992104
