 23
 0.000000
  H 1.538383 0.150184 0.425726
  C 2.618740 0.138337 0.397270
  C 3.337813 0.615618 1.584211
  C 2.436156 1.075509 2.725881
  C 3.256765 1.555095 3.919268
  C 3.209602 -0.326383 -0.758371
  C 4.587982 -0.411096 -0.969063
  C 5.197123 -0.877872 -2.135347
  C 4.494434 -1.359676 -3.338747
  H 3.415305 -1.334829 -3.276776
  O 6.499405 -0.918769 -2.239485
  H 4.001441 1.441030 1.297981
  H 4.000661 -0.178538 1.949629
  H 1.792259 0.253550 3.044191
  H 1.793356 1.889652 2.385949
  H 3.889073 0.757647 4.303036
  H 2.601160 1.879150 4.723631
  H 3.890169 2.395396 3.644098
  H 2.550884 -0.644908 -1.552287
  H 5.238168 -0.089703 -0.166345
  H 4.826277 -2.377680 -3.549220
  H 4.826326 -0.768206 -4.193622
  H 6.987220 -0.603245 -1.454365
 23
 10.486115
  H 1.507607 0.177312 0.492820
  C 2.585040 0.165230 0.464087
  C 3.307439 0.637451 1.638687
  C 2.410945 1.098760 2.783546
  C 3.237361 1.576611 3.972949
  C 3.241196 -0.353754 -0.826430
  C 4.604526 -0.435189 -1.028924
  C 5.217515 -0.901227 -2.193546
  C 4.517590 -1.383901 -3.398816
  H 3.438733 -1.358944 -3.336130
  O 6.519278 -0.940329 -2.293728
  H 3.972265 1.461017 1.348714
  H 3.971275 -0.158141 2.000180
  H 1.766823 0.277902 3.104203
  H 1.768188 1.913908 2.445993
  H 3.869773 0.777927 4.353957
  H 2.585863 1.901859 4.779992
  H 3.871142 2.415706 3.694998
  H 2.580644 -0.670129 -1.615215
  H 5.251776 -0.112826 -0.223683
  H 4.849315 -2.401812 -3.608902
  H 4.849098 -0.792155 -4.253373
  H 7.004786 -0.624159 -1.507696
 23
 29.854492
  H 1.361278 0.163685 0.458419
  C 2.439527 0.170700 0.478092
  C 3.255908 0.626312 1.611894
  C 2.432244 1.107902 2.805467
  C 3.336792 1.565989 3.946732
  C 3.161942 -0.402467 -0.946839
  C 4.520359 -0.439307 -1.039324
  C 5.212387 -0.881285 -2.144751
  C 4.589913 -1.377156 -3.381482
  H 3.509976 -1.366039 -3.351601
  O 6.516815 -0.884871 -2.158312
  H 3.935669 1.424985 1.287851
  H 3.933823 -0.175505 1.932020
  H 1.788519 0.302236 3.159891
  H 1.790961 1.936084 2.502198
  H 3.970408 0.752335 4.291736
  H 2.739620 1.906044 4.789300
  H 3.972885 2.390102 3.632429
  H 2.449922 -0.701763 -1.693153
  H 5.107174 -0.104130 -0.202811
  H 4.947895 -2.389155 -3.578233
  H 4.946763 -0.780548 -4.222664
  H 6.946226 -0.557315 -1.344556
 23
 52.568668
  H 1.303531 0.182424 0.506147
  C 2.374492 0.199040 0.548665
  C 3.209867 0.638070 1.640823
  C 2.414634 1.129300 2.859021
  C 3.351587 1.577476 3.975438
  C 3.160531 -0.428493 -1.011934
  C 4.507188 -0.453950 -1.077459
  C 5.236618 -0.896595 -2.183610
  C 4.634553 -1.398575 -3.434948
  H 3.552523 -1.390855 -3.415129
  O 6.554100 -0.890200 -2.171346
  H 3.889346 1.435544 1.295769
  H 3.887816 -0.177286 1.944733
  H 1.772280 0.328605 3.226966
  H 1.774334 1.963065 2.569134
  H 3.985379 0.757175 4.304215
  H 2.778876 1.923164 4.832603
  H 3.987434 2.395439 3.644798
  H 2.421294 -0.716089 -1.727481
  H 5.076704 -0.112361 -0.226502
  H 4.994110 -2.410306 -3.624173
  H 4.993815 -0.797853 -4.270863
  H 6.968113 -0.559726 -1.347371
 23
 75.117542
  H 1.265447 0.212403 0.580833
  C 2.335195 0.229333 0.624398
  C 3.171811 0.664677 1.707502
  C 2.389791 1.154998 2.922789
  C 3.334776 1.600524 4.032772
  C 3.184572 -0.452798 -1.071907
  C 4.529334 -0.478241 -1.137765
  C 5.268372 -0.925052 -2.254564
  C 4.673183 -1.427076 -3.506136
  H 3.593338 -1.420806 -3.489952
  O 6.566476 -0.918112 -2.241296
  H 3.846142 1.455104 1.362273
  H 3.844353 -0.145855 2.006674
  H 1.747638 0.355143 3.293812
  H 1.750041 1.990422 2.635454
  H 3.968325 0.778543 4.357787
  H 2.768272 1.947622 4.892926
  H 3.970719 2.416801 3.698175
  H 2.440182 -0.738741 -1.783225
  H 5.097971 -0.135375 -0.283944
  H 5.034885 -2.439280 -3.694047
  H 5.034613 -0.825123 -4.341388
  H 6.974701 -0.589270 -1.421494
 23
 95.586554
  H 1.203673 0.228651 0.621194
  C 2.271588 0.251063 0.678616
  C 3.134744 0.677894 1.740687
  C 2.372932 1.178602 2.981287
  C 3.344757 1.616168 4.071740
  C 3.184291 -0.485751 -1.153358
  C 4.523675 -0.500061 -1.191737
  C 5.284614 -0.938903 -2.289104
  C 4.708152 -1.444250 -3.548919
  H 3.624787 -1.442351 -3.543267
  O 6.598097 -0.921594 -2.250624
  H 3.814516 1.468790 1.378978
  H 3.812432 -0.144528 2.028481
  H 1.731389 0.383559 3.365001
  H 1.734040 2.019499 2.706231
  H 3.977816 0.788698 4.383801
  H 2.798129 1.968036 4.943379
  H 3.980492 2.427188 3.723923
  H 2.423766 -0.765047 -1.848145
  H 5.074958 -0.153449 -0.328653
  H 5.076132 -2.453723 -3.732421
  H 5.075673 -0.841090 -4.379117
  H 6.994976 -0.586869 -1.416553
 23
 113.195026
  H 1.150847 0.254921 0.686027
  C 2.218675 0.279425 0.749402
  C 3.094708 0.700607 1.797954
  C 2.354634 1.203103 3.041748
  C 3.343537 1.634288 4.117010
  C 3.193747 -0.512261 -1.218628
  C 4.529515 -0.521659 -1.245019
  C 5.310863 -0.959867 -2.341556
  C 4.751723 -1.467955 -3.607802
  H 3.671600 -1.470686 -3.612817
  O 6.609834 -0.936369 -2.288993
  H 3.769421 1.482851 1.431891
  H 3.766734 -0.119017 2.077052
  H 1.714702 0.411911 3.432160
  H 1.718087 2.046263 2.773723
  H 3.975596 0.803185 4.420503
  H 2.810498 1.989187 4.995190
  H 3.979012 2.441351 3.760425
  H 2.424574 -0.787868 -1.904490
  H 5.070820 -0.172539 -0.375698
  H 5.126457 -2.477155 -3.787654
  H 5.125500 -0.862306 -4.435241
  H 6.990248 -0.603219 -1.459660
 23
 127.844014
  H 1.096398 0.275491 0.736769
  C 2.161453 0.303469 0.809545
  C 3.056657 0.717016 1.839565
  C 2.335282 1.228348 3.104023
  C 3.347723 1.652320 4.161976
  C 3.198000 -0.543226 -1.294918
  C 4.529527 -0.544977 -1.302299
  C 5.329706 -0.976831 -2.384005
  C 4.786907 -1.486987 -3.655099
  H 3.703517 -1.493807 -3.669177
  O 6.638022 -0.944597 -2.311168
  H 3.734654 1.499712 1.460184
  H 3.731287 -0.112484 2.109827
  H 1.695586 0.440513 3.505426
  H 1.699657 2.077070 2.845754
  H 3.978796 0.816233 4.454563
  H 2.832046 2.011374 5.049503
  H 3.982925 2.454803 3.793943
  H 2.416541 -0.813366 -1.967661
  H 5.057558 -0.193013 -0.425440
  H 5.167026 -2.493376 -3.830994
  H 5.165457 -0.880310 -4.477808
  H 7.010826 -0.604916 -1.466283
 23
 139.536949
  H 1.049488 0.305314 0.809806
  C 2.116563 0.333014 0.883182
  C 3.015163 0.742874 1.904719
  C 2.311556 1.256724 3.173674
  C 3.337175 1.675007 4.218688
  C 3.215073 -0.569054 -1.357314
  C 4.544777 -0.569281 -1.361214
  C 5.359447 -1.000949 -2.444305
  C 4.827339 -1.512928 -3.719800
  H 3.746776 -1.523198 -3.740818
  O 6.654505 -0.964704 -2.363727
  H 3.688876 1.518928 1.522163
  H 3.684576 -0.084665 2.168738
  H 1.673540 0.472584 3.580388
  H 1.678666 2.107070 2.921185
  H 3.966789 0.835963 4.504441
  H 2.832724 2.036554 5.111112
  H 3.972016 2.474006 3.843656
  H 2.429610 -0.837142 -2.025641
  H 5.067661 -0.216034 -0.480589
  H 5.212176 -2.519373 -3.893551
  H 5.209631 -0.904081 -4.540931
  H 7.014417 -0.628158 -1.527534
 23
 146.728074
  H 1.024962 0.344779 0.907021
  C 2.098658 0.362734 0.957575
  C 2.960155 0.776069 1.988062
  C 2.265418 1.296441 3.271556
  C 3.298383 1.714094 4.316139
  C 3.262692 -0.594070 -1.417461
  C 4.595627 -0.603885 -1.445622
  C 5.400724 -1.040565 -2.543238
  C 4.854096 -1.548114 -3.807749
  H 3.770418 -1.555630 -3.820396
  O 6.688341 -1.010092 -2.479081
  H 3.634760 1.549412 1.600607
  H 3.629477 -0.053442 2.247272
  H 1.626316 0.512968 3.683375
  H 1.632475 2.150425 3.022649
  H 3.927673 0.873342 4.599784
  H 2.799126 2.077547 5.212078
  H 3.933940 2.512041 3.938398
  H 2.489120 -0.867523 -2.100001
  H 5.131662 -0.252538 -0.569075
  H 5.233842 -2.554396 -3.984389
  H 5.230468 -0.940663 -4.630750
  H 7.066491 -0.669733 -1.633537
 23
 148.596675
  H 0.997034 0.385414 1.007298
  C 2.076569 0.392812 1.032531
  C 2.903385 0.813607 2.081580
  C 2.222047 1.336347 3.370178
  C 3.258064 1.751192 4.408815
  C 3.309878 -0.618045 -1.475477
  C 4.644943 -0.635823 -1.523871
  C 5.440616 -1.075632 -2.630864
  C 4.879452 -1.581456 -3.890909
  H 3.796564 -1.586271 -3.895612
  O 6.720773 -1.049324 -2.578756
  H 3.581083 1.581893 1.688944
  H 3.575166 -0.016327 2.333865
  H 1.583785 0.555596 3.785487
  H 1.590633 2.191272 3.125391
  H 3.886409 0.909214 4.689434
  H 2.765134 2.115779 5.306915
  H 3.893404 2.547387 4.028156
  H 2.549024 -0.897128 -2.172541
  H 5.191571 -0.286627 -0.652293
  H 5.255215 -2.589360 -4.070902
  H 5.251164 -0.974684 -4.717423
  H 7.103575 -0.714774 -1.747271
 23
 149.450665
  H 0.967689 0.423065 1.100289
  C 2.049551 0.421644 1.104573
  C 2.857859 0.849302 2.170928
  C 2.182355 1.373206 3.461194
  C 3.221479 1.786837 4.497875
  C 3.347549 -0.643816 -1.538439
  C 4.680591 -0.665997 -1.598353
  C 5.469659 -1.106379 -2.707940
  C 4.899706 -1.609924 -3.961647
  H 3.815909 -1.612742 -3.960107
  O 6.752468 -1.081629 -2.661278
  H 3.540962 1.615732 1.772786
  H 3.534193 0.016316 2.418416
  H 1.542789 0.592562 3.878540
  H 1.550546 2.230001 3.217511
  H 3.849622 0.943529 4.777290
  H 2.731496 2.152547 5.397776
  H 3.857511 2.582456 4.115457
  H 2.592946 -0.925580 -2.242488
  H 5.233837 -0.318097 -0.729951
  H 5.272511 -2.617627 -4.143709
  H 5.267766 -1.004495 -4.789650
  H 7.146804 -0.744303 -1.822686
 23
 150.310415
  H 0.937480 0.462774 1.198483
  C 2.022754 0.453888 1.184968
  C 2.818046 0.886633 2.264098
  C 2.145042 1.409068 3.549827
  C 3.183021 1.822131 4.586054
  C 3.380800 -0.667119 -1.594939
  C 4.712100 -0.692345 -1.662962
  C 5.498030 -1.133562 -2.775904
  C 4.921683 -1.636846 -4.028739
  H 3.838780 -1.638514 -4.023270
  O 6.777028 -1.109501 -2.732336
  H 3.502734 1.648355 1.864981
  H 3.495376 0.055878 2.507932
  H 1.505236 0.629200 3.966210
  H 1.513704 2.265086 3.305685
  H 3.810548 0.978957 4.865534
  H 2.693245 2.187944 5.485480
  H 3.819191 2.617155 4.203864
  H 2.628047 -0.949830 -2.301610
  H 5.269592 -0.345654 -0.797343
  H 5.293383 -2.645812 -4.212906
  H 5.288036 -1.031616 -4.859135
  H 7.171360 -0.776292 -1.903907
 23
 151.024491
  H 0.905720 0.501285 1.293857
  C 1.992232 0.486373 1.266067
  C 2.780471 0.922239 2.353022
  C 2.107948 1.445073 3.638746
  C 3.146621 1.858022 4.675514
  C 3.405957 -0.691074 -1.652480
  C 4.735247 -0.717367 -1.723792
  C 5.519520 -1.157683 -2.836113
  C 4.939678 -1.659415 -4.085295
  H 3.856386 -1.660022 -4.076078
  O 6.802076 -1.133228 -2.793030
  H 3.468777 1.682032 1.950854
  H 3.460785 0.090311 2.593693
  H 1.466922 0.665001 4.055249
  H 1.476072 2.301730 3.394210
  H 3.774023 1.014273 4.955029
  H 2.657029 2.224306 5.575341
  H 3.783355 2.652931 4.292989
  H 2.650541 -0.972752 -2.356818
  H 5.294967 -0.371284 -0.859302
  H 5.310141 -2.667775 -4.270969
  H 5.304182 -1.055096 -4.916218
  H 7.203586 -0.797573 -1.958197
