 24
 0.000000
  C 0.816183 0.046771 0.306835
  C 2.305915 0.057585 0.115133
  C 3.199575 -0.011808 1.345000
  C 2.535571 -0.089226 2.716945
  C 3.585315 -0.151541 3.821330
  C 2.912082 0.124335 -1.067791
  C 2.388783 0.203846 -2.476882
  C 0.891308 0.219916 -2.761625
  H 0.730657 0.280392 -3.833405
  H 3.995277 0.124363 -1.068241
  H 0.536631 -0.012303 1.353692
  H 0.370040 -0.814135 -0.184947
  H 0.370042 0.957538 -0.084973
  H 3.848153 0.869972 1.341688
  H 3.848157 -0.887619 1.242511
  H 1.906957 -0.980130 2.782932
  H 1.906946 0.788600 2.882741
  H 4.218040 -1.028775 3.703645
  H 3.105336 -0.206554 4.796211
  H 4.218039 0.733372 3.803072
  H 2.819825 -0.644216 -3.023146
  H 2.819822 1.107972 -2.924269
  H 0.411721 1.079683 -2.302132
  H 0.411721 -0.686087 -2.401771
 24
 10.176569
  C 0.803807 0.049904 0.251310
  C 2.285933 0.062055 0.035912
  C 3.270185 -0.012665 1.360189
  C 2.550291 -0.096728 2.849893
  C 3.603726 -0.158545 3.945464
  C 2.884721 0.128496 -1.141539
  C 2.362614 0.207966 -2.549915
  C 0.864888 0.223913 -2.832473
  H 0.703997 0.284503 -3.906277
  H 3.969634 0.128559 -1.142618
  H 0.544893 -0.009534 1.304628
  H 0.350501 -0.810979 -0.233796
  H 0.350503 0.959897 -0.133868
  H 3.913469 0.867009 1.353047
  H 3.913471 -0.885949 1.254132
  H 1.923345 -0.986403 2.912674
  H 1.923337 0.780235 3.012363
  H 4.236166 -1.035631 3.824302
  H 3.128234 -0.213674 4.922411
  H 4.236162 0.726607 3.923736
  H 2.794503 -0.639988 -3.095679
  H 2.794502 1.111933 -2.996821
  H 0.385571 1.083463 -2.373137
  H 0.385571 -0.681854 -2.472749
 24
 32.834703
  C 0.797685 0.051058 0.230870
  C 2.259100 0.066383 -0.040766
  C 3.348705 -0.013070 1.367371
  C 2.554875 -0.103235 2.965217
  C 3.608139 -0.164248 4.046519
  C 2.857527 0.132328 -1.209433
  C 2.343311 0.211917 -2.619921
  C 0.845569 0.227725 -2.900040
  H 0.685658 0.288421 -3.975718
  H 3.945025 0.132123 -1.205776
  H 0.588797 -0.009134 1.297543
  H 0.327812 -0.810703 -0.237558
  H 0.327815 0.960047 -0.137637
  H 3.976061 0.864475 1.358417
  H 3.976064 -0.884035 1.259754
  H 1.931319 -0.990247 3.007207
  H 1.931309 0.773421 3.106729
  H 4.240622 -1.041415 3.922947
  H 3.134158 -0.219445 5.024675
  H 4.240616 0.721257 4.022405
  H 2.778280 -0.635936 -3.163058
  H 2.778279 1.115485 -3.064228
  H 0.366119 1.087341 -2.441216
  H 0.366119 -0.678048 -2.540833
 24
 59.611973
  C 0.787048 0.052868 0.198784
  C 2.237339 0.070718 -0.117595
  C 3.428265 -0.013649 1.377645
  C 2.557273 -0.109775 3.081108
  C 3.614414 -0.170429 4.156066
  C 2.843631 0.136637 -1.285801
  C 2.326346 0.216195 -2.695763
  C 0.825391 0.230750 -2.953666
  H 0.650506 0.291269 -4.026233
  H 3.930357 0.136369 -1.281046
  H 0.616717 -0.007632 1.270938
  H 0.304359 -0.810057 -0.256887
  H 0.304362 0.961579 -0.156916
  H 4.044924 0.872759 1.369678
  H 4.044923 -0.893526 1.270013
  H 1.935074 -0.998989 3.099294
  H 1.935070 0.771742 3.199210
  H 4.247034 -1.047481 4.031791
  H 3.141056 -0.225735 5.136197
  H 4.247026 0.715036 4.131239
  H 2.758412 -0.631615 -3.240931
  H 2.758415 1.119955 -3.142098
  H 0.351873 1.090289 -2.487590
  H 0.351874 -0.675759 -2.587244
 24
 87.992342
  C 0.785709 0.055388 0.154127
  C 2.219950 0.075337 -0.199443
  C 3.509889 -0.014136 1.386273
  C 2.560201 -0.116068 3.192617
  C 3.616366 -0.176258 4.259355
  C 2.826504 0.140143 -1.347928
  C 2.305855 0.219723 -2.758269
  C 0.802015 0.233126 -2.995746
  H 0.611990 0.293533 -4.066271
  H 3.912562 0.139726 -1.340513
  H 0.648478 -0.005413 1.231603
  H 0.292965 -0.808161 -0.289845
  H 0.292968 0.963404 -0.189877
  H 4.112943 0.876917 1.380893
  H 4.112948 -0.898927 1.280688
  H 1.942196 -1.005243 3.186396
  H 1.942183 0.768167 3.286466
  H 4.248663 -1.053188 4.134904
  H 3.143285 -0.231619 5.240454
  H 4.248654 0.709107 4.234340
  H 2.734849 -0.628155 -3.305266
  H 2.734853 1.123756 -3.206410
  H 0.334798 1.092093 -2.522706
  H 0.334791 -0.673611 -2.622335
 24
 115.408288
  C 0.768752 0.056504 0.134354
  C 2.190453 0.078958 -0.263611
  C 3.585169 -0.015416 1.408974
  C 2.565487 -0.123331 3.321342
  C 3.627544 -0.182953 4.378030
  C 2.815149 0.145041 -1.434727
  C 2.288882 0.224815 -2.848512
  C 0.782894 0.237228 -3.068445
  H 0.579759 0.297486 -4.136357
  H 3.902141 0.144716 -1.428964
  H 0.667875 -0.004537 1.216077
  H 0.264264 -0.808364 -0.294942
  H 0.264267 0.964179 -0.194919
  H 4.177297 0.883697 1.404333
  H 4.177303 -0.908300 1.303218
  H 1.951428 -1.014518 3.293778
  H 1.951422 0.765292 3.394207
  H 4.259427 -1.060053 4.250719
  H 3.159656 -0.238549 5.363281
  H 4.259422 0.702905 4.350192
  H 2.714759 -0.623131 -3.397146
  H 2.714760 1.129098 -3.298275
  H 0.321198 1.095910 -2.589420
  H 0.321196 -0.669890 -2.689058
