 25
 0.000000
  C 0.999723 0.155605 0.438986
  C 2.471122 0.142470 0.405745
  C 3.248864 0.607567 1.562545
  H 2.641987 0.942095 2.395345
  C 3.069966 -0.326184 -0.760832
  C 4.448673 -0.418860 -0.992386
  C 5.094774 -0.871029 -2.119560
  C 4.609659 -1.387852 -3.408069
  C 3.123568 -1.511075 -3.716314
  C 2.915956 -2.074314 -5.120602
  H 6.177107 -0.859536 -2.091048
  H 0.602762 0.532479 1.376806
  H 0.612197 -0.851203 0.276481
  H 0.611794 0.769783 -0.374989
  H 3.905489 1.424649 1.256502
  H 3.905889 -0.193735 1.906983
  H 2.398306 -0.640507 -1.542735
  H 5.094761 -0.095508 -0.187358
  H 5.076682 -2.373940 -3.536166
  H 5.077288 -0.764040 -4.182113
  H 2.645266 -0.531708 -3.666462
  H 2.644805 -2.184272 -3.003593
  H 3.360421 -1.425557 -5.871927
  H 1.854337 -2.161229 -5.338036
  H 3.360053 -3.062648 -5.215264
 25
 -0.238481
  C 0.996251 0.277729 0.446634
  C 2.459847 0.139189 0.390167
  C 3.260447 0.426772 1.591179
  H 2.634779 0.652623 2.448551
  C 3.033262 -0.258606 -0.813753
  C 4.414785 -0.338903 -1.035471
  C 5.073565 -0.758132 -2.166936
  C 4.609187 -1.323613 -3.436963
  C 3.129122 -1.523233 -3.729335
  C 2.937952 -2.168562 -5.099644
  H 6.154191 -0.685966 -2.123804
  H 0.647421 0.630154 1.411585
  H 0.520882 -0.680183 0.225667
  H 0.649809 0.957015 -0.333969
  H 3.917620 1.279319 1.409638
  H 3.911351 -0.412541 1.836281
  H 2.357249 -0.488262 -1.620400
  H 5.047643 -0.012593 -0.220712
  H 5.126003 -2.288269 -3.547858
  H 5.054067 -0.712134 -4.234888
  H 2.613672 -0.561595 -3.727670
  H 2.682242 -2.172248 -2.974648
  H 3.355405 -1.544723 -5.886848
  H 1.880381 -2.308712 -5.308413
  H 3.420307 -3.142473 -5.143719
 25
 0.310763
  C 0.994942 0.397286 0.478018
  C 2.437282 0.139979 0.354038
  C 3.262275 0.202609 1.576255
  H 2.648496 0.326870 2.463455
  C 2.989168 -0.148898 -0.887113
  C 4.374227 -0.242658 -1.088118
  C 5.063953 -0.629303 -2.210931
  C 4.625921 -1.267071 -3.455730
  C 3.152470 -1.544835 -3.715874
  C 2.971363 -2.281086 -5.040607
  H 6.137852 -0.490068 -2.168417
  H 0.707746 0.683501 1.483644
  H 0.430399 -0.492387 0.189133
  H 0.684269 1.171194 -0.226023
  H 3.947269 1.050985 1.527219
  H 3.870351 -0.693227 1.693165
  H 2.316582 -0.243253 -1.723446
  H 4.976164 0.054509 -0.235730
  H 5.184873 -2.211902 -3.525153
  H 5.035461 -0.673323 -4.284757
  H 2.598266 -0.606797 -3.765493
  H 2.740269 -2.159042 -2.913439
  H 3.354631 -1.691165 -5.870227
  H 1.918000 -2.475465 -5.225786
  H 3.492109 -3.235990 -5.031567
 25
 3.704584
  C 0.993084 0.473857 0.533782
  C 2.405408 0.166574 0.265583
  C 3.259747 -0.071513 1.456302
  H 2.661300 -0.056718 2.365465
  C 2.939235 0.085271 -1.008211
  C 4.323028 -0.081654 -1.177252
  C 5.065005 -0.467911 -2.262154
  C 4.663200 -1.217456 -3.457148
  C 3.193554 -1.562197 -3.656076
  C 3.002332 -2.402603 -4.915159
  H 6.126032 -0.252553 -2.219311
  H 0.766407 0.504155 1.592726
  H 0.345595 -0.263263 0.053253
  H 0.722692 1.427902 0.076082
  H 3.996488 0.723028 1.576329
  H 3.760622 -1.035934 1.413820
  H 2.294347 0.237469 -1.858552
  H 4.869851 0.065971 -0.242802
  H 5.256757 -2.142086 -3.452741
  H 5.034114 -0.670023 -4.334052
  H 2.607270 -0.649662 -3.756032
  H 2.821299 -2.120929 -2.795249
  H 3.347678 -1.866927 -5.796574
  H 1.951276 -2.640664 -5.056953
  H 3.552666 -3.338466 -4.847696
 25
 15.898246
  C 1.002616 0.528511 0.506639
  C 2.400690 0.226351 0.154394
  C 3.272795 -0.370343 1.207796
  H 2.676112 -0.460225 2.125910
  C 2.913525 0.446331 -1.107423
  C 4.268817 0.195382 -1.333401
  C 5.065214 -0.243409 -2.350643
  C 4.706365 -1.168008 -3.437619
  C 3.249059 -1.613302 -3.495243
  C 3.014961 -2.550484 -4.674613
  H 6.098116 0.084551 -2.356691
  H 0.722373 0.133066 1.476523
  H 0.313420 0.143735 -0.246116
  H 0.857169 1.612269 0.514781
  H 4.051056 0.308022 1.556416
  H 3.570190 -1.392096 0.997633
  H 2.305273 0.908661 -1.870540
  H 4.716689 0.037855 -0.328153
  H 5.362965 -2.039516 -3.339338
  H 4.983743 -0.695286 -4.388196
  H 2.602780 -0.743006 -3.600003
  H 2.976461 -2.124206 -2.570526
  H 3.256263 -2.059105 -5.614571
  H 1.974212 -2.861648 -4.712225
  H 3.629860 -3.443529 -4.590932
 25
 29.227777
  C 1.008099 0.508447 0.611992
  C 2.368905 0.303983 0.089663
  C 3.315507 -0.408910 1.022117
  H 2.767733 -0.610938 1.956824
  C 2.843107 0.643691 -1.151992
  C 4.169304 0.300488 -1.424921
  C 5.032880 -0.194181 -2.342465
  C 4.723995 -1.175703 -3.404210
  C 3.264425 -1.609076 -3.483525
  C 3.057717 -2.602587 -4.619897
  H 6.072609 0.109499 -2.298828
  H 0.828514 -0.049298 1.522947
  H 0.257738 0.219496 -0.124332
  H 0.842457 1.568729 0.810914
  H 4.093248 0.231337 1.444544
  H 3.571468 -1.414854 0.703276
  H 2.241612 1.177099 -1.872454
  H 4.558584 0.052769 -0.334485
  H 5.369895 -2.045196 -3.262945
  H 5.022601 -0.726948 -4.360811
  H 2.618985 -0.744647 -3.628182
  H 2.984489 -2.095908 -2.547790
  H 3.316826 -2.154816 -5.576670
  H 2.018391 -2.913693 -4.670609
  H 3.675702 -3.486665 -4.480981
 25
 56.384778
  C 1.055671 0.621656 0.828441
  C 2.302597 0.294599 0.117206
  C 3.366734 -0.526186 0.805940
  H 2.958043 -0.804569 1.799745
  C 2.656151 0.727950 -1.146388
  C 3.915592 0.421099 -1.574717
  C 4.871732 -0.030979 -2.378621
  C 4.731013 -1.126881 -3.394348
  C 3.287400 -1.650727 -3.565117
  C 3.221908 -2.752618 -4.617821
  H 5.856180 0.392167 -2.329108
  H 0.938633 0.038142 1.745445
  H 0.184540 0.448517 0.196613
  H 1.039671 1.682130 1.089627
  H 4.178002 0.064340 1.271697
  H 3.520745 -1.534223 0.391392
  H 2.019210 1.395600 -1.734587
  H 4.301210 -0.105112 -0.255526
  H 5.399969 -1.955774 -3.099572
  H 5.103728 -0.743386 -4.349892
  H 2.637836 -0.827821 -3.868515
  H 2.914942 -2.035063 -2.617669
  H 3.561504 -2.379148 -5.598854
  H 2.198307 -3.118582 -4.729445
  H 3.847976 -3.585120 -4.339736
 25
 58.874937
  C 1.097414 0.741019 0.911370
  C 2.308428 0.301339 0.170554
  C 3.350538 -0.597525 0.810367
  H 2.976750 -0.882540 1.813426
  C 2.606902 0.765800 -1.105293
  C 3.747797 0.440029 -1.740577
  C 4.732380 0.073963 -2.499050
  C 4.697188 -1.053818 -3.501245
  C 3.333985 -1.726683 -3.615725
  C 3.352195 -2.840246 -4.653254
  H 5.700368 0.564734 -2.428366
  H 0.935018 0.157962 1.814980
  H 0.204661 0.659698 0.289566
  H 1.176910 1.793482 1.196478
  H 4.200989 -0.087286 1.378517
  H 3.388904 -1.615470 0.378578
  H 1.932014 1.455357 -1.595857
  H 4.227252 -0.282816 0.096998
  H 5.457794 -1.792733 -3.230535
  H 4.986599 -0.645391 -4.470901
  H 2.584538 -0.983539 -3.897118
  H 3.042662 -2.144682 -2.651664
  H 3.620384 -2.450648 -5.633414
  H 2.375004 -3.306598 -4.731562
  H 4.073790 -3.606552 -4.384727
 25
 61.779816
  C 1.126832 0.786162 0.901817
  C 2.333228 0.316233 0.170302
  C 3.329432 -0.639344 0.818835
  H 2.820360 -1.008251 1.723503
  C 2.615290 0.765062 -1.114505
  C 3.738930 0.468207 -1.794358
  C 4.708949 0.120930 -2.571503
  C 4.685954 -1.034664 -3.541885
  C 3.343355 -1.756761 -3.597908
  C 3.375566 -2.909679 -4.593797
  H 5.659471 0.645428 -2.542818
  H 1.006955 0.294147 1.862124
  H 0.222000 0.610608 0.317789
  H 1.173623 1.863153 1.075461
  H 4.191648 -0.322063 1.535178
  H 3.497632 -1.539316 0.212264
  H 1.914730 1.442605 -1.586557
  H 4.196805 0.014385 0.391419
  H 5.477551 -1.738991 -3.270396
  H 4.933126 -0.643421 -4.533009
  H 2.564189 -1.048655 -3.887346
  H 3.090924 -2.145098 -2.610156
  H 3.603845 -2.548660 -5.594889
  H 2.412610 -3.413872 -4.627831
  H 4.133470 -3.639433 -4.315896
 25
 65.104305
  C 1.155730 0.787713 0.928158
  C 2.347637 0.313494 0.180510
  C 3.358526 -0.678698 0.830385
  H 2.797278 -1.062840 1.689291
  C 2.588406 0.742666 -1.121093
  C 3.714055 0.501605 -1.819633
  C 4.702211 0.131276 -2.563079
  C 4.692171 -1.038215 -3.517356
  C 3.337172 -1.732378 -3.617031
  C 3.387421 -2.905522 -4.588488
  H 5.668848 0.619953 -2.486546
  H 1.072664 0.333216 1.910059
  H 0.242345 0.565027 0.374480
  H 1.181027 1.871308 1.056414
  H 4.286829 -0.481003 1.483492
  H 3.552728 -1.513394 0.148816
  H 1.850638 1.390734 -1.579324
  H 4.020490 0.196785 0.453382
  H 5.457792 -1.753820 -3.204121
  H 4.986118 -0.666455 -4.503452
  H 2.586882 -1.014011 -3.954193
  H 3.034063 -2.095700 -2.633700
  H 3.667114 -2.569515 -5.585370
  H 2.415686 -3.389376 -4.654897
  H 4.115920 -3.645779 -4.263367
 25
 61.853403
  C 1.263088 0.900087 0.988963
  C 2.387901 0.373629 0.175829
  C 3.328706 -0.781855 0.848842
  H 2.668913 -1.136216 1.645875
  C 2.579879 0.800793 -1.150731
  C 3.642410 0.509142 -1.899919
  C 4.646072 0.156145 -2.628476
  C 4.686435 -1.028095 -3.558836
  C 3.364674 -1.786205 -3.636488
  C 3.465337 -2.973730 -4.585975
  H 5.580300 0.705635 -2.578043
  H 1.199520 0.437281 1.968056
  H 0.321633 0.728665 0.469215
  H 1.346774 1.978021 1.130573
  H 4.249317 -0.668177 1.472623
  H 3.479520 -1.581052 0.123167
  H 1.837227 1.466398 -1.567493
  H 3.687018 0.302558 0.450916
  H 5.485310 -1.699771 -3.232469
  H 4.959791 -0.665181 -4.554373
  H 2.579236 -1.110352 -3.982511
  H 3.084568 -2.144495 -2.643624
  H 3.723138 -2.643896 -5.591639
  H 2.517507 -3.504257 -4.637024
  H 4.230327 -3.672624 -4.251509
 25
 47.211243
  C 1.390970 0.985677 1.093480
  C 2.505148 0.464782 0.251001
  C 3.128351 -0.928980 0.753737
  H 2.369085 -1.344787 1.419058
  C 2.659789 0.892047 -1.112224
  C 3.661650 0.513790 -1.903606
  C 4.616742 0.196056 -2.701002
  C 4.671000 -1.005666 -3.602730
  C 3.410374 -1.863629 -3.545352
  C 3.515872 -3.053691 -4.490965
  H 5.497832 0.826553 -2.755769
  H 1.331527 0.481432 2.051958
  H 0.441678 0.848002 0.573852
  H 1.494218 2.055001 1.273084
  H 4.028711 -0.945647 1.370439
  H 3.250802 -1.592995 -0.097892
  H 1.918704 1.575836 -1.508680
  H 3.592911 0.532841 0.567090
  H 5.544085 -1.603980 -3.330914
  H 4.830031 -0.651378 -4.624758
  H 2.551955 -1.255523 -3.832741
  H 3.243675 -2.220383 -2.526159
  H 3.657676 -2.720890 -5.517364
  H 2.609805 -3.653125 -4.452579
  H 4.356262 -3.689009 -4.220597
 25
 32.662247
  C 1.578298 1.119603 1.215124
  C 2.563635 0.438448 0.311774
  C 2.820967 -1.076112 0.615799
  H 2.029183 -1.420522 1.281670
  C 2.686762 0.920314 -1.065912
  C 3.610590 0.530595 -1.931673
  C 4.517014 0.257891 -2.805878
  C 4.628914 -0.960160 -3.668615
  C 3.477686 -1.945120 -3.482116
  C 3.649172 -3.153520 -4.391743
  H 5.322447 0.972154 -2.954804
  H 1.500085 0.610631 2.170131
  H 0.588567 1.137425 0.756247
  H 1.863411 2.155933 1.393795
  H 3.750680 -1.293302 1.136179
  H 2.779785 -1.661752 -0.300172
  H 1.984995 1.686122 -1.378534
  H 3.632070 0.602987 0.614212
  H 5.579353 -1.457245 -3.455707
  H 4.671662 -0.622963 -4.707939
  H 2.533429 -1.448279 -3.710066
  H 3.442623 -2.279106 -2.445140
  H 3.667818 -2.852591 -5.435547
  H 2.826355 -3.849251 -4.256672
  H 4.575477 -3.676462 -4.171261
 25
 25.345371
  C 1.674981 1.100494 1.252109
  C 2.737907 0.414925 0.423786
  C 2.790226 -1.109908 0.589594
  H 1.881366 -1.461908 1.073305
  C 2.878760 0.938073 -0.965383
  C 3.725922 0.510619 -1.873265
  C 4.544248 0.219785 -2.840451
  C 4.543726 -0.976018 -3.722122
  C 3.433561 -1.976949 -3.420451
  C 3.475715 -3.139014 -4.403222
  H 5.352991 0.917780 -3.046966
  H 1.592562 0.629661 2.227892
  H 0.703155 1.018597 0.764588
  H 1.894843 2.157668 1.391988
  H 3.626405 -1.418572 1.212964
  H 2.881750 -1.611468 -0.369959
  H 2.292686 1.826517 -1.189633
  H 3.754139 0.736498 0.735568
  H 5.515075 -1.475043 -3.657284
  H 4.456533 -0.603904 -4.748442
  H 2.465542 -1.475832 -3.487611
  H 3.547849 -2.364241 -2.407656
  H 3.348572 -2.788146 -5.424436
  H 2.677379 -3.844733 -4.187796
  H 4.422715 -3.670467 -4.338177
 25
 25.908515
  C 1.477432 1.033518 1.046141
  C 2.699791 0.427092 0.389658
  C 2.876344 -1.074509 0.634307
  H 1.953774 -1.502201 1.024116
  C 2.919893 0.901100 -1.015120
  C 3.895863 0.517778 -1.806782
  C 4.729150 0.136769 -2.731682
  C 4.645456 -1.069382 -3.603773
  C 3.429613 -1.957908 -3.335917
  C 3.391836 -3.125120 -4.315879
  H 5.619876 0.740924 -2.905300
  H 1.345901 0.626512 2.045590
  H 0.580248 0.787047 0.470687
  H 1.548965 2.120721 1.118015
  H 3.663651 -1.264775 1.366905
  H 3.141781 -1.605125 -0.277381
  H 2.329722 1.771961 -1.303397
  H 3.642600 0.913597 0.737617
  H 5.563314 -1.661032 -3.501723
  H 4.627950 -0.693035 -4.633955
  H 2.516009 -1.362588 -3.438111
  H 3.470023 -2.352761 -2.318501
  H 3.336867 -2.764959 -5.342526
  H 2.517370 -3.748541 -4.127424
  H 4.280542 -3.749779 -4.215988
