 22
 0.000000
  C 0.972443 0.209477 0.575442
  C 2.410682 0.119723 0.349149
  H 3.079665 0.438966 1.141400
  C 2.953688 -0.352346 -0.825823
  C 4.345389 -0.425176 -1.009062
  C 5.045665 -0.867093 -2.109434
  C 4.619439 -1.387469 -3.405962
  C 3.151546 -1.532565 -3.770528
  C 3.000388 -2.097889 -5.181017
  H 6.127076 -0.827924 -2.011481
  H 0.727712 0.604040 1.556718
  H 0.508159 -0.772375 0.447731
  H 0.506769 0.828634 -0.196390
  H 2.284712 -0.667418 -1.608015
  H 4.943510 -0.088220 -0.170879
  H 5.119899 -2.360095 -3.528333
  H 5.121034 -0.770103 -4.166687
  H 2.658697 -0.559452 -3.733673
  H 2.657283 -2.209895 -3.071918
  H 3.461946 -1.443725 -5.917102
  H 1.949022 -2.199473 -5.437244
  H 3.460227 -3.080191 -5.261120
 22
 8.161974
  C 0.874325 0.221294 0.604975
  C 2.468077 0.118215 0.345399
  H 3.137312 0.435320 1.132460
  C 2.993407 -0.351914 -0.824764
  C 4.383928 -0.429203 -1.019132
  C 5.073817 -0.873654 -2.125847
  C 4.635486 -1.392162 -3.417687
  C 3.164748 -1.532719 -3.770852
  C 3.000475 -2.097429 -5.179850
  H 6.154631 -0.838081 -2.036920
  H 0.642691 0.615561 1.585561
  H 0.413344 -0.758594 0.480950
  H 0.412045 0.841692 -0.162808
  H 2.315878 -0.664809 -1.601609
  H 4.990220 -0.094100 -0.185599
  H 5.132421 -2.366416 -3.544471
  H 5.133516 -0.776675 -4.182734
  H 2.675110 -0.558091 -3.729994
  H 2.673729 -2.208430 -3.068286
  H 3.458089 -1.444786 -5.919671
  H 1.946785 -2.195596 -5.427510
  H 3.456400 -3.081189 -5.263716
 22
 25.091899
  C 0.774985 0.228864 0.623749
  C 2.526448 0.117037 0.342746
  H 3.179769 0.435275 1.133238
  C 3.026149 -0.349892 -0.819749
  C 4.420764 -0.432276 -1.026784
  C 5.099234 -0.879798 -2.141352
  C 4.647767 -1.395540 -3.426261
  C 3.175915 -1.532072 -3.769030
  C 2.997673 -2.096067 -5.176298
  H 6.179772 -0.848046 -2.062139
  H 0.568103 0.622171 1.602299
  H 0.339255 -0.752892 0.502903
  H 0.338249 0.853253 -0.142875
  H 2.338289 -0.660174 -1.590578
  H 5.036310 -0.099232 -0.198292
  H 5.142545 -2.371224 -3.558583
  H 5.143524 -0.782783 -4.196314
  H 2.688797 -0.555984 -3.723740
  H 2.687616 -2.205938 -3.062254
  H 3.450616 -1.445200 -5.920341
  H 1.941650 -2.190549 -5.414487
  H 3.449124 -3.081355 -5.264507
 22
 43.932041
  C 0.665679 0.241530 0.655308
  C 2.575925 0.123394 0.358781
  H 3.214852 0.446831 1.162687
  C 3.066151 -0.351061 -0.822730
  C 4.460210 -0.437712 -1.040367
  C 5.126932 -0.886715 -2.158759
  C 4.662278 -1.401135 -3.440373
  C 3.188500 -1.533964 -3.773717
  C 2.996367 -2.097318 -5.179277
  H 6.209078 -0.858179 -2.087587
  H 0.481606 0.637386 1.640553
  H 0.255955 -0.752718 0.535040
  H 0.255124 0.875702 -0.119387
  H 2.372650 -0.659089 -1.588293
  H 5.082444 -0.106867 -0.217219
  H 5.154946 -2.377614 -3.578146
  H 5.155953 -0.791593 -4.214966
  H 2.703772 -0.556704 -3.724007
  H 2.702706 -2.205688 -3.062890
  H 3.444686 -1.448194 -5.927649
  H 1.937870 -2.188130 -5.408088
  H 3.443367 -3.084299 -5.271782
 22
 62.443774
  C 0.570621 0.242392 0.657433
  C 2.639467 0.117633 0.344625
  H 3.262537 0.443003 1.153681
  C 3.103787 -0.347711 -0.814397
  C 4.493406 -0.438269 -1.041782
  C 5.149722 -0.890589 -2.168564
  C 4.670944 -1.402730 -3.444528
  C 3.194251 -1.530396 -3.764872
  C 2.985709 -2.092873 -5.168034
  H 6.231971 -0.865944 -2.107039
  H 0.413128 0.638069 1.642473
  H 0.190095 -0.757893 0.537998
  H 0.189406 0.881770 -0.120719
  H 2.403283 -0.653007 -1.573379
  H 5.123285 -0.109227 -0.223021
  H 5.160037 -2.380253 -3.588205
  H 5.161117 -0.796599 -4.224149
  H 2.712952 -0.551502 -3.709956
  H 2.711993 -2.199708 -3.049101
  H 3.428668 -1.445702 -5.921280
  H 1.924572 -2.179334 -5.385736
  H 3.427510 -3.081709 -5.265325
 22
 76.960867
  C 0.448852 0.236526 0.640926
  C 2.685863 0.128558 0.374261
  H 3.238322 0.468815 1.222209
  C 3.134291 -0.339574 -0.792096
  C 4.543950 -0.439585 -1.044529
  C 5.180443 -0.897230 -2.186124
  C 4.677446 -1.405948 -3.453664
  C 3.196288 -1.525935 -3.752911
  C 2.964854 -2.086702 -5.152009
  H 6.263243 -0.879126 -2.141984
  H 0.355841 0.631723 1.625462
  H 0.181430 -0.793825 0.504060
  H 0.181955 0.886589 -0.170318
  H 2.424668 -0.643679 -1.548664
  H 5.187767 -0.113179 -0.232745
  H 5.161645 -2.384563 -3.609853
  H 5.161988 -0.807132 -4.243121
  H 2.719894 -0.544573 -3.690381
  H 2.719995 -2.192495 -3.029935
  H 3.398769 -1.441625 -5.912216
  H 1.899871 -2.167081 -5.353083
  H 3.398723 -3.078224 -5.256272
 22
 88.260649
  C 0.361626 0.193696 0.531071
  C 2.770306 0.126647 0.372928
  H 3.195308 0.487893 1.275352
  C 3.208188 -0.330211 -0.766237
  C 4.620414 -0.440207 -1.045743
  C 5.205266 -0.896994 -2.186972
  C 4.674365 -1.402934 -3.447321
  C 3.182835 -1.504616 -3.698425
  C 2.905541 -2.061916 -5.089638
  H 6.288022 -0.890978 -2.174319
  H 0.290622 0.587031 1.512496
  H 0.201333 -0.853809 0.384701
  H 0.202991 0.850697 -0.298199
  H 2.514137 -0.639582 -1.536489
  H 5.273315 -0.116826 -0.241887
  H 5.135779 -2.386376 -3.611540
  H 5.134904 -0.805376 -4.246021
  H 2.719745 -0.517580 -3.622868
  H 2.721069 -2.167267 -2.962197
  H 3.327462 -1.420487 -5.859771
  H 1.834949 -2.131412 -5.261701
  H 3.328481 -3.057141 -5.204309
 22
 95.071283
  C 0.274855 0.163476 0.450609
  C 2.848243 0.133487 0.394859
  H 3.167995 0.507314 1.338776
  C 3.283045 -0.314324 -0.727577
  C 4.707092 -0.438465 -1.041163
  C 5.239272 -0.892773 -2.179878
  C 4.670236 -1.405683 -3.456627
  C 3.168982 -1.493925 -3.668998
  C 2.858042 -2.049033 -5.054275
  H 6.324952 -0.896592 -2.195189
  H 0.189917 0.558682 1.445435
  H 0.174325 -0.892038 0.295694
  H 0.178312 0.825695 -0.386251
  H 2.603210 -0.623342 -1.503690
  H 5.369326 -0.123915 -0.254815
  H 5.110269 -2.391761 -3.626483
  H 5.106884 -0.808448 -4.261193
  H 2.717672 -0.504037 -3.587724
  H 2.721322 -2.155997 -2.926397
  H 3.270404 -1.409620 -5.831729
  H 1.783169 -2.111246 -5.204752
  H 3.273511 -3.047010 -5.176269
 22
 99.819048
  C 0.176990 0.145463 0.404547
  C 2.910468 0.133508 0.396156
  H 3.180463 0.510536 1.351155
  C 3.338702 -0.308916 -0.715094
  C 4.768543 -0.441890 -1.049653
  C 5.272571 -0.898465 -2.194767
  C 4.680868 -1.406021 -3.458105
  C 3.166896 -1.481233 -3.637216
  C 2.821522 -2.034892 -5.017966
  H 6.356532 -0.910639 -2.231275
  H 0.090088 0.538256 1.396432
  H 0.107061 -0.914562 0.247028
  H 0.111182 0.810910 -0.435814
  H 2.656624 -0.620038 -1.499189
  H 5.444825 -0.129573 -0.267022
  H 5.109811 -2.401938 -3.633978
  H 5.106147 -0.805665 -4.273952
  H 2.725013 -0.485225 -3.548059
  H 2.728947 -2.142110 -2.884450
  H 3.223567 -1.398735 -5.803668
  H 1.742939 -2.088485 -5.146482
  H 3.226821 -3.036131 -5.147848
 22
 102.855922
  C 0.078333 0.133772 0.375243
  C 2.970906 0.141826 0.417150
  H 3.191522 0.523449 1.384441
  C 3.395235 -0.301294 -0.696734
  C 4.814618 -0.443064 -1.052577
  C 5.292657 -0.902914 -2.205793
  C 4.679061 -1.409949 -3.467939
  C 3.164387 -1.476312 -3.625526
  C 2.798941 -2.027967 -5.000521
  H 6.377375 -0.922190 -2.259701
  H -0.009399 0.527622 1.370910
  H 0.038552 -0.925582 0.218233
  H 0.042297 0.799526 -0.463749
  H 2.717079 -0.610848 -1.478037
  H 5.497757 -0.135992 -0.282362
  H 5.095856 -2.406831 -3.646272
  H 5.092412 -0.810918 -4.286200
  H 2.730380 -0.479083 -3.533300
  H 2.734018 -2.135459 -2.869464
  H 3.195159 -1.393930 -5.790539
  H 1.718862 -2.076169 -5.116023
  H 3.198096 -3.030909 -5.134521
 22
 104.857547
  C -0.020273 0.112993 0.323025
  C 3.030123 0.144437 0.424332
  H 3.198900 0.528973 1.399133
  C 3.448938 -0.295843 -0.682926
  C 4.868866 -0.446621 -1.061277
  C 5.320387 -0.909462 -2.222124
  C 4.681615 -1.410763 -3.470156
  C 3.160535 -1.463852 -3.594812
  C 2.761121 -2.013092 -4.963281
  H 6.402999 -0.937197 -2.296987
  H -0.109898 0.505804 1.316651
  H -0.028712 -0.948320 0.166809
  H -0.025212 0.780917 -0.516449
  H 2.767617 -0.606702 -1.468153
  H 5.566293 -0.142253 -0.297661
  H 5.085569 -2.413374 -3.653843
  H 5.082244 -0.811372 -4.296237
  H 2.736802 -0.461418 -3.495183
  H 2.740340 -2.121395 -2.829681
  H 3.146756 -1.382188 -5.761473
  H 1.678362 -2.052423 -5.056787
  H 3.149545 -3.019478 -5.105113
 22
 106.163531
  C -0.118776 0.094649 0.276600
  C 3.087886 0.152305 0.444909
  H 3.203053 0.539816 1.426599
  C 3.503901 -0.288808 -0.664589
  C 4.912968 -0.448349 -1.065390
  C 5.339572 -0.914523 -2.234717
  C 4.676335 -1.413359 -3.476885
  C 3.153306 -1.455991 -3.575407
  C 2.728077 -2.002367 -4.936566
  H 6.421594 -0.949719 -2.328115
  H -0.211471 0.487979 1.271530
  H -0.096991 -0.965018 0.123248
  H -0.093640 0.763203 -0.559637
  H 2.823203 -0.598749 -1.447492
  H 5.619287 -0.148647 -0.313905
  H 5.068216 -2.419010 -3.664043
  H 5.064906 -0.814135 -4.307463
  H 2.738468 -0.451236 -3.471120
  H 2.742053 -2.111949 -2.805303
  H 3.105258 -1.374029 -5.740292
  H 1.643944 -2.034843 -5.012875
  H 3.108112 -3.010797 -5.084179
 22
 106.888375
  C -0.217237 0.068432 0.210148
  C 3.143670 0.155830 0.455011
  H 3.203629 0.544914 1.440226
  C 3.555245 -0.283143 -0.649443
  C 4.961352 -0.452345 -1.075192
  C 5.361240 -0.921256 -2.251707
  C 4.670916 -1.413909 -3.478692
  C 3.144882 -1.442410 -3.541446
  C 2.683226 -1.985069 -4.893315
  H 6.440323 -0.965111 -2.366833
  H -0.315698 0.461029 1.203389
  H -0.165630 -0.991440 0.059849
  H -0.162337 0.739222 -0.623899
  H 2.870085 -0.593660 -1.433837
  H 5.682486 -0.155938 -0.332414
  H 5.048578 -2.423799 -3.671060
  H 5.045099 -0.814999 -4.315812
  H 2.741551 -0.433019 -3.429368
  H 2.745396 -2.096530 -2.762581
  H 3.048130 -1.359790 -5.705480
  H 1.597260 -2.007904 -4.945102
  H 3.051231 -2.996979 -5.049345
 22
 107.270912
  C -0.323744 0.051787 0.168048
  C 3.191604 0.162897 0.473150
  H 3.212183 0.552836 1.459863
  C 3.601285 -0.277843 -0.635726
  C 4.994921 -0.455030 -1.081915
  C 5.375074 -0.926849 -2.265536
  C 4.662109 -1.416397 -3.484955
  C 3.134405 -1.435241 -3.523800
  C 2.647916 -1.974970 -4.868321
  H 6.452793 -0.977178 -2.396528
  H -0.430354 0.444765 1.162026
  H -0.256549 -1.006599 0.020428
  H -0.253414 0.723123 -0.663118
  H 2.912070 -0.586924 -1.416190
  H 5.725215 -0.162895 -0.350391
  H 5.029801 -2.429711 -3.680875
  H 5.026442 -0.817475 -4.326927
  H 2.739272 -0.423291 -3.407443
  H 2.743046 -2.088194 -2.740122
  H 3.004173 -1.352154 -5.685789
  H 1.561288 -1.991026 -4.903276
  H 3.007218 -2.988834 -5.029889
