 19
 0.000000
  C 1.029275 0.118746 0.346651
  C 2.501591 0.121477 0.353075
  C 3.234696 0.596494 1.534952
  H 2.578787 0.918357 2.336422
  C 3.146786 -0.339088 -0.793522
  C 4.533651 -0.409219 -0.969056
  C 5.171677 -0.862453 -2.098516
  C 4.565151 -1.357226 -3.331998
  H 3.481592 -1.365847 -3.354510
  H 6.253858 -0.864853 -2.104398
  H 0.606364 0.491544 1.274658
  H 0.655857 -0.891537 0.169805
  H 0.655671 0.725907 -0.479885
  H 3.891182 1.424391 1.260191
  H 3.891590 -0.191030 1.909306
  H 2.514941 -0.666136 -1.607295
  H 5.153893 -0.079277 -0.147281
  H 4.942468 -2.365459 -3.523642
  H 4.943094 -0.761411 -4.167335
 19
 15.332956
  C 1.033334 0.148026 0.419488
  C 2.562251 0.075835 0.239691
  C 3.339902 0.539597 1.393043
  H 2.683465 0.859508 2.189380
  C 2.978640 -0.399887 -0.943837
  C 4.328950 -0.395907 -0.935545
  C 5.115948 -0.826969 -2.010033
  C 4.641892 -1.339261 -3.287600
  H 3.558034 -1.379241 -3.388372
  H 6.191373 -0.779261 -1.891138
  H 0.738078 0.535751 1.384304
  H 0.609743 -0.843777 0.285050
  H 0.609739 0.771109 -0.363702
  H 3.981691 1.376640 1.127276
  H 3.982194 -0.248179 1.780367
  H 2.335929 -0.718044 -1.734813
  H 4.897951 -0.058207 -0.094761
  H 5.068980 -2.337119 -3.453903
  H 5.069556 -0.733122 -4.097168
 19
 52.604266
  C 1.043737 0.166350 0.464716
  C 2.627655 0.047437 0.168951
  C 3.401473 0.521711 1.349136
  H 2.729217 0.837946 2.136520
  C 2.859546 -0.436244 -1.034482
  C 4.172944 -0.388650 -0.918112
  C 5.096692 -0.817761 -1.988244
  C 4.704757 -1.337859 -3.283700
  H 3.625580 -1.397603 -3.432472
  H 6.153981 -0.740244 -1.796169
  H 0.811954 0.558320 1.441087
  H 0.602554 -0.824385 0.353936
  H 0.602737 0.805645 -0.300260
  H 4.032952 1.374399 1.109750
  H 4.033472 -0.259285 1.766138
  H 2.186196 -0.746410 -1.805499
  H 4.731726 -0.049839 -0.074631
  H 5.157208 -2.323861 -3.431066
  H 5.157387 -0.727673 -4.072075
 19
 100.990691
  C 1.030088 0.182384 0.501370
  C 2.704863 0.024045 0.113791
  C 3.429131 0.508175 1.314747
  H 2.735312 0.821838 2.091791
  C 2.790490 -0.469167 -1.103409
  C 4.086147 -0.377410 -0.888252
  C 5.091434 -0.808663 -1.967182
  C 4.735303 -1.330906 -3.270344
  H 3.663232 -1.398142 -3.441041
  H 6.141118 -0.715587 -1.733387
  H 0.839950 0.578579 1.487301
  H 0.595859 -0.804513 0.405408
  H 0.596306 0.829334 -0.250492
  H 4.058118 1.366162 1.085383
  H 4.058373 -0.268753 1.744960
  H 2.104064 -0.772924 -1.853855
  H 4.697453 -0.049921 -0.068707
  H 5.196504 -2.308126 -3.410598
  H 5.198136 -0.721246 -4.046408
 19
 116.601768
  C 0.515063 0.177232 0.599389
  C 3.103349 -0.012490 0.110015
  C 3.521996 0.540119 1.385282
  H 2.664998 0.786879 2.012924
  C 2.943480 -0.488410 -1.085289
  C 4.444447 -0.402428 -0.950926
  C 5.180703 -0.798047 -2.017074
  C 4.706158 -1.307422 -3.327450
  H 3.630330 -1.343826 -3.424898
  H 6.252024 -0.767166 -1.909737
  H 0.378991 0.565883 1.587767
  H 0.309959 -0.858576 0.458153
  H 0.313181 0.842157 -0.213955
  H 4.098292 1.463345 1.232150
  H 4.132516 -0.193417 1.942616
  H 2.284513 -0.801734 -1.867776
  H 5.090189 -0.091686 -0.140170
  H 5.108101 -2.319660 -3.487207
  H 5.102170 -0.676080 -4.120919
 19
 116.496542
  C 0.287390 0.198148 0.714361
  C 3.276109 -0.075263 0.089946
  C 3.538938 0.561045 1.341040
  H 2.598602 0.834771 1.821021
  C 3.013950 -0.507076 -1.060780
  C 4.556397 -0.461441 -0.947035
  C 5.253351 -0.855211 -2.032895
  C 4.741093 -1.282307 -3.360092
  H 3.661626 -1.271647 -3.445535
  H 6.331948 -0.835107 -1.957367
  H 0.170809 0.598398 1.700723
  H 0.097324 -0.845362 0.577659
  H 0.142558 0.856169 -0.116268
  H 4.106531 1.480131 1.188172
  H 4.091849 -0.099616 2.010935
  H 2.328660 -0.807323 -1.813500
  H 5.245192 -0.215945 -0.147008
  H 5.101970 -2.288299 -3.576766
  H 5.158582 -0.633794 -4.129286
 19
 116.983990
  C 0.071830 0.266003 0.819789
  C 3.464377 -0.057824 0.048955
  C 3.542496 0.551198 1.337200
  H 2.517251 0.729063 1.676788
  C 3.059865 -0.518529 -1.049068
  C 4.646576 -0.449873 -0.989613
  C 5.322642 -0.844315 -2.082944
  C 4.778479 -1.298367 -3.395804
  H 3.698396 -1.282372 -3.455464
  H 6.404076 -0.840874 -2.031178
  H -0.017002 0.672200 1.805067
  H -0.057242 -0.786677 0.684787
  H -0.031249 0.920010 -0.019393
  H 4.071650 1.509488 1.286929
  H 4.052081 -0.102096 2.059189
  H 2.381609 -0.851943 -1.789788
  H 5.351245 -0.221167 -0.187382
  H 5.126887 -2.312860 -3.602103
  H 5.180331 -0.663942 -4.184894
 19
 119.567728
  C -0.264189 0.333903 0.958822
  C 3.554455 -0.067138 -0.012949
  C 3.627144 0.523168 1.287468
  H 2.608415 0.696366 1.643017
  C 3.103870 -0.536089 -1.082326
  C 4.709484 -0.443367 -1.011143
  C 5.390443 -0.835701 -2.099443
  C 4.850605 -1.312126 -3.409305
  H 3.770703 -1.307844 -3.468533
  H 6.465505 -0.822331 -2.045631
  H -0.316538 0.738833 1.942012
  H -0.386110 -0.722189 0.822955
  H -0.363315 0.989716 0.119920
  H 4.161656 1.475542 1.252646
  H 4.133343 -0.135712 1.984503
  H 2.445104 -0.885494 -1.825701
  H 5.416720 -0.212603 -0.219524
  H 5.208415 -2.324113 -3.601899
  H 5.244775 -0.679901 -4.209980
 19
 122.431387
  C -0.603627 0.394611 1.080291
  C 3.642189 -0.071796 -0.058286
  C 3.717038 0.500812 1.255322
  H 2.704449 0.683702 1.622125
  C 3.144947 -0.555509 -1.105396
  C 4.776666 -0.433820 -1.025569
  C 5.454729 -0.828376 -2.126226
  C 4.914442 -1.326618 -3.422987
  H 3.835244 -1.339709 -3.475541
  H 6.531339 -0.803455 -2.084776
  H -0.628461 0.802741 2.067462
  H -0.729340 -0.657007 0.946263
  H -0.707269 1.049785 0.240555
  H 4.263852 1.445298 1.236248
  H 4.218574 -0.179895 1.938022
  H 2.487966 -0.915048 -1.850338
  H 5.510187 -0.199794 -0.255390
  H 5.286844 -2.335308 -3.604499
  H 5.293255 -0.700214 -4.233543
 19
 124.932558
  C -0.939553 0.442221 1.173361
  C 3.730937 -0.080572 -0.092508
  C 3.820461 0.490430 1.228758
  H 2.819679 0.696451 1.608478
  C 3.187760 -0.586393 -1.107930
  C 4.849235 -0.427778 -1.029097
  C 5.509724 -0.815777 -2.146053
  C 4.954327 -1.324980 -3.431691
  H 3.876937 -1.344980 -3.470104
  H 6.590346 -0.798745 -2.120029
  H -0.947694 0.856654 2.157407
  H -1.078115 -0.604869 1.046541
  H -1.053388 1.093063 0.334349
  H 4.392193 1.418314 1.209609
  H 4.312553 -0.210847 1.905604
  H 2.527152 -0.949690 -1.845054
  H 5.613871 -0.213865 -0.279957
  H 5.325944 -2.335761 -3.603559
  H 5.321723 -0.713592 -4.251418
 19
 125.721018
  C -1.322524 0.495064 1.257055
  C 3.841212 -0.080691 -0.112456
  C 3.935160 0.477215 1.216367
  H 2.940751 0.680874 1.601777
  C 3.251609 -0.604969 -1.089892
  C 4.953487 -0.428067 -1.034799
  C 5.571898 -0.824717 -2.174198
  C 4.983659 -1.332579 -3.438121
  H 3.899574 -1.359526 -3.444806
  H 6.652992 -0.820294 -2.178340
  H -1.316037 0.917335 2.238488
  H -1.463814 -0.555753 1.139895
  H -1.436732 1.138546 0.413280
  H 4.512467 1.403037 1.205810
  H 4.430201 -0.231974 1.878689
  H 2.588801 -0.988024 -1.817294
  H 5.747904 -0.196898 -0.313821
  H 5.360054 -2.333926 -3.631083
  H 5.320501 -0.705089 -4.266952
 19
 126.113425
  C -1.744130 0.545046 1.349543
  C 3.955968 -0.088829 -0.124549
  C 4.050700 0.466474 1.209963
  H 3.052631 0.670492 1.593996
  C 3.315474 -0.606668 -1.073119
  C 5.070051 -0.434514 -1.044931
  C 5.637537 -0.841885 -2.199838
  C 5.015197 -1.345026 -3.449173
  H 3.934317 -1.378908 -3.428832
  H 6.716605 -0.850285 -2.233575
  H -1.720400 0.965579 2.331150
  H -1.880712 -0.508146 1.229360
  H -1.842648 1.190381 0.506081
  H 4.625066 1.388157 1.202097
  H 4.549759 -0.244084 1.870431
  H 2.650023 -0.978763 -1.811511
  H 5.878975 -0.170683 -0.361356
  H 5.395566 -2.346119 -3.658175
  H 5.325949 -0.714506 -4.281639
 19
 126.764663
  C -2.095537 0.590539 1.401639
  C 4.030927 -0.115757 -0.128539
  C 4.137632 0.472706 1.193737
  H 3.146680 0.708187 1.574165
  C 3.368090 -0.685940 -1.032625
  C 5.138377 -0.455903 -1.032356
  C 5.678690 -0.848478 -2.207458
  C 5.026002 -1.321073 -3.456389
  H 3.945729 -1.315365 -3.423253
  H 6.753754 -0.858895 -2.263807
  H -2.063198 1.023877 2.374937
  H -2.228585 -0.463386 1.298305
  H -2.183181 1.223273 0.545919
  H 4.741873 1.375704 1.166735
  H 4.614455 -0.241811 1.870652
  H 2.689107 -1.103633 -1.729815
  H 5.962770 -0.169244 -0.367994
  H 5.366707 -2.326359 -3.687222
  H 5.350357 -0.685316 -4.282957
 19
 126.249681
  C -2.488708 0.638273 1.463590
  C 4.110449 -0.139395 -0.138672
  C 4.212969 0.491712 1.165549
  H 3.221751 0.738654 1.537082
  C 3.430514 -0.756903 -0.997329
  C 5.231263 -0.479867 -1.023447
  C 5.736409 -0.861280 -2.218004
  C 5.041524 -1.279464 -3.459937
  H 3.961362 -1.206369 -3.405985
  H 6.810801 -0.904189 -2.297257
  H -2.460456 1.102918 2.423124
  H -2.622811 -0.419648 1.395476
  H -2.583170 1.243463 0.589358
  H 4.822912 1.388753 1.117050
  H 4.682345 -0.207737 1.861359
  H 2.739420 -1.220678 -1.654809
  H 6.070816 -0.224557 -0.361327
  H 5.317040 -2.300176 -3.715523
  H 5.391400 -0.649780 -4.279559
