10

H 1.4335923113766678 -0.07526429635473604 0.04030546621656881
C 2.5035 -0.081644 0.027782
C 3.22115 -0.593773 -0.977615
C 4.658509 -0.604602 -0.998873
C 5.378123 -1.120171 -2.011018
H 6.447988389999669 -1.1278748299771515 -2.026140773705269
H 3.000096 0.354817 0.88463
H 2.710817 -1.027403 -1.828891
H 5.163052 -0.169763 -0.145217
H 4.873252 -1.554903 -2.864472
