 23
 0.000000
  C 0.967661 0.133616 0.422906
  C 2.441576 0.130997 0.394183
  C 3.211770 0.606920 1.557176
  H 2.597056 0.939263 2.384385
  C 3.051497 -0.336458 -0.764270
  C 4.427694 -0.416790 -0.965736
  C 5.109365 -0.868550 -2.092080
  C 4.608740 -1.384499 -3.395557
  C 3.121276 -1.494002 -3.690239
  H 2.993197 -1.889613 -4.692084
  O 6.428501 -0.872697 -2.079826
  H 0.563472 0.512757 1.355569
  H 0.595845 -0.878462 0.255419
  H 0.578915 0.731387 -0.403019
  H 3.862440 1.429887 1.255108
  H 3.871026 -0.187793 1.911645
  H 2.390959 -0.657031 -1.550306
  H 5.060722 -0.089075 -0.149660
  H 5.070694 -2.370164 -3.523107
  H 5.078621 -0.758688 -4.162961
  H 2.641203 -0.519682 -3.650991
  H 2.633401 -2.174335 -2.997125
  H 6.833135 -0.544125 -1.255891
 23
 -0.257852
  C 0.987598 -0.093425 0.540919
  C 2.444122 0.083582 0.395471
  C 3.199469 0.796067 1.443652
  H 2.549502 1.132879 2.245566
  C 3.049982 -0.443933 -0.738486
  C 4.423305 -0.435802 -0.972641
  C 5.107939 -0.959073 -2.065889
  C 4.587314 -1.476390 -3.361704
  C 3.154744 -1.186499 -3.784798
  H 3.056796 -1.413433 -4.844085
  O 6.423204 -1.032932 -2.029081
  H 0.601273 0.363878 1.446013
  H 0.746570 -1.158416 0.547686
  H 0.464744 0.321115 -0.321492
  H 3.712173 1.661791 1.023656
  H 3.969990 0.152437 1.868840
  H 2.402110 -0.921455 -1.452473
  H 5.047646 -0.018942 -0.191152
  H 4.754953 -2.559592 -3.359865
  H 5.272940 -1.088442 -4.122162
  H 2.904177 -0.139774 -3.642517
  H 2.440395 -1.812191 -3.258975
  H 6.830401 -0.726524 -1.197145
 23
 1.926676
  C 1.062517 -0.286991 0.625799
  C 2.454052 0.139031 0.383974
  C 3.157461 0.937308 1.402970
  H 2.576965 1.020392 2.316431
  C 3.052454 -0.294814 -0.793854
  C 4.425330 -0.376754 -1.007134
  C 5.064584 -1.061142 -2.037594
  C 4.535121 -1.518945 -3.352724
  C 3.194994 -1.003313 -3.858612
  H 3.107641 -1.253749 -4.912970
  O 6.337705 -1.376983 -1.911585
  H 0.634047 0.163334 1.514783
  H 1.071318 -1.373797 0.748500
  H 0.426540 -0.085587 -0.234928
  H 3.331051 1.943047 1.015015
  H 4.137814 0.529224 1.639041
  H 2.394363 -0.711137 -1.537927
  H 5.068299 -0.030204 -0.207012
  H 4.528711 -2.614333 -3.341343
  H 5.314176 -1.251643 -4.074361
  H 3.124117 0.076013 -3.762684
  H 2.356612 -1.472668 -3.353819
  H 6.758694 -1.063206 -1.089616
 23
 7.029155
  C 1.175449 -0.423651 0.602429
  C 2.482872 0.222079 0.372052
  C 3.141203 0.963894 1.458486
  H 2.619368 0.844234 2.399252
  C 3.084054 -0.051158 -0.859645
  C 4.448591 -0.271167 -1.042662
  C 5.007903 -1.085688 -2.025019
  C 4.477090 -1.502239 -3.353262
  C 3.149733 -0.962075 -3.869348
  H 3.039190 -1.267368 -4.907581
  O 6.213132 -1.589347 -1.835106
  H 0.692697 -0.101135 1.518321
  H 1.393133 -1.494422 0.664427
  H 0.500236 -0.294789 -0.246292
  H 3.147856 2.027069 1.203301
  H 4.182350 0.682739 1.582938
  H 2.417584 -0.333971 -1.655315
  H 5.099491 -0.011420 -0.218389
  H 4.462369 -2.598966 -3.373040
  H 5.268286 -1.219257 -4.059790
  H 3.121314 0.121955 -3.835395
  H 2.301613 -1.373647 -3.329473
  H 6.664152 -1.280138 -1.028971
 23
 14.702902
  C 1.359018 -0.623059 0.550140
  C 2.526487 0.263463 0.366491
  C 3.109833 0.990618 1.500732
  H 2.624490 0.738571 2.439098
  C 3.121335 0.158596 -0.893774
  C 4.469129 -0.153863 -1.072429
  C 4.919319 -1.083271 -1.996673
  C 4.357658 -1.512596 -3.310185
  C 3.103484 -0.868804 -3.885111
  H 2.967184 -1.239308 -4.899270
  O 6.067928 -1.704512 -1.779787
  H 0.848013 -0.483101 1.494873
  H 1.800154 -1.625039 0.507680
  H 0.655283 -0.559634 -0.276233
  H 2.985528 2.060988 1.323893
  H 4.182654 0.835603 1.584424
  H 2.448879 -0.020164 -1.719498
  H 5.126526 0.039724 -0.230862
  H 4.227775 -2.598959 -3.270578
  H 5.182792 -1.351169 -4.014177
  H 3.197203 0.209654 -3.936865
  H 2.212386 -1.142338 -3.328146
  H 6.561833 -1.386979 -1.000872
 23
 22.307876
  C 1.542900 -0.794286 0.519845
  C 2.564522 0.261788 0.369769
  C 3.071251 1.014109 1.519718
  H 2.675303 0.644943 2.458017
  C 3.140191 0.281840 -0.908373
  C 4.474204 -0.088507 -1.101770
  C 4.842348 -1.091169 -1.976727
  C 4.243522 -1.533071 -3.273553
  C 3.076426 -0.778090 -3.892428
  H 2.889241 -1.195420 -4.877328
  O 5.960423 -1.769440 -1.747857
  H 1.078316 -0.819397 1.497040
  H 2.126836 -1.710894 0.348599
  H 0.789546 -0.770194 -0.266437
  H 2.766784 2.057296 1.403338
  H 4.159344 1.036232 1.551245
  H 2.461013 0.187421 -1.740008
  H 5.154656 0.112746 -0.279205
  H 3.984869 -2.592080 -3.176152
  H 5.086221 -1.506469 -3.974952
  H 3.305057 0.276336 -4.016129
  H 2.160854 -0.898221 -3.320947
  H 6.468486 -1.462638 -0.975826
 23
 31.701714
  C 1.706559 -0.865257 0.367757
  C 2.609079 0.305243 0.330822
  C 3.048375 1.000332 1.543845
  H 2.602765 0.585502 2.441251
  C 3.206299 0.449830 -0.941657
  C 4.521293 -0.012774 -1.117213
  C 4.798072 -1.083659 -1.943180
  C 4.166709 -1.531396 -3.222566
  C 2.945222 -0.819453 -3.777984
  H 2.706495 -1.261862 -4.743797
  O 5.888683 -1.813753 -1.714949
  H 1.208933 -1.020316 1.315668
  H 2.418860 -1.680128 0.147113
  H 1.003068 -0.891891 -0.461458
  H 2.752939 2.048945 1.458409
  H 4.133861 1.019612 1.636921
  H 2.545216 0.485379 -1.794327
  H 5.168248 0.102830 -0.253258
  H 3.958618 -2.602461 -3.134463
  H 4.978031 -1.452754 -3.957539
  H 3.138129 0.238963 -3.934168
  H 2.071272 -0.952334 -3.148024
  H 6.448041 -1.484676 -0.989651
 23
 44.094889
  C 1.973660 -0.989062 0.303803
  C 2.666234 0.307990 0.315776
  C 2.965038 1.057172 1.530818
  H 2.551102 0.591546 2.419857
  C 3.245897 0.556589 -0.963413
  C 4.538656 0.018316 -1.135240
  C 4.720625 -1.103029 -1.907934
  C 4.052804 -1.547893 -3.170748
  C 2.888034 -0.761180 -3.748415
  H 2.611312 -1.212003 -4.700166
  O 5.793306 -1.873198 -1.690498
  H 1.577027 -1.314909 1.257154
  H 2.804630 -1.641734 -0.071018
  H 1.255777 -1.118885 -0.506164
  H 2.541957 2.060244 1.422739
  H 4.035756 1.219559 1.652171
  H 2.581252 0.660784 -1.806268
  H 5.195252 0.118026 -0.274963
  H 3.763889 -2.591541 -3.040848
  H 4.862289 -1.559306 -3.908402
  H 3.168435 0.268318 -3.945146
  H 2.010698 -0.796642 -3.109374
  H 6.275283 -1.661076 -0.872774
 23
 61.942778
  C 2.112283 -0.988985 0.151998
  C 2.672719 0.341364 0.255109
  C 2.969208 1.011288 1.512016
  H 2.682310 0.413212 2.373267
  C 3.269381 0.715433 -1.007055
  C 4.525073 0.072539 -1.144941
  C 4.617109 -1.129149 -1.794115
  C 3.949080 -1.607944 -3.053437
  C 2.828999 -0.784845 -3.668794
  H 2.509212 -1.277836 -4.585916
  O 5.677044 -1.921654 -1.539428
  H 1.706309 -1.441912 1.040376
  H 3.073734 -1.512071 -0.299414
  H 1.572921 -1.246331 -0.762580
  H 2.417488 1.954804 1.539873
  H 4.019955 1.288805 1.576723
  H 2.628917 0.937834 -1.843364
  H 5.170981 0.175651 -0.276569
  H 3.598678 -2.626764 -2.874812
  H 4.761803 -1.688210 -3.779281
  H 3.170913 0.210374 -3.931741
  H 1.959100 -0.720768 -3.022154
  H 6.309179 -1.539881 -0.911023
 23
 86.048680
  C 2.141438 -0.938770 0.191049
  C 2.667663 0.325985 0.283557
  C 2.897846 1.078178 1.529679
  H 2.537288 0.537240 2.397394
  C 3.295611 0.715351 -0.997477
  C 4.522260 0.046751 -1.146494
  C 4.606884 -1.186736 -1.805486
  C 3.932491 -1.629559 -3.078889
  C 2.803672 -0.789300 -3.640707
  H 2.462949 -1.250117 -4.567927
  O 5.693127 -1.951865 -1.604528
  H 1.766748 -1.421858 1.074956
  H 3.462960 -1.544963 -0.567570
  H 1.741373 -1.320318 -0.738613
  H 2.380723 2.033129 1.474328
  H 3.957259 1.311056 1.642787
  H 2.645992 0.925402 -1.829209
  H 5.195157 0.144257 -0.296448
  H 3.596981 -2.661023 -2.946299
  H 4.741231 -1.668338 -3.817528
  H 3.138820 0.214657 -3.875502
  H 1.948675 -0.750085 -2.972216
  H 6.267443 -1.639907 -0.889220
 23
 79.016218
  C 2.043832 -0.850111 0.238276
  C 2.591783 0.358803 0.299426
  C 2.880520 1.133752 1.537931
  H 2.514184 0.616284 2.414194
  C 3.282229 0.691868 -0.969934
  C 4.483091 -0.006904 -1.094682
  C 4.631402 -1.270609 -1.803803
  C 3.967609 -1.668863 -3.119181
  C 2.798496 -0.835832 -3.620062
  H 2.483320 -1.236503 -4.580593
  O 5.770914 -1.998853 -1.646277
  H 1.634611 -1.301632 1.129193
  H 3.870827 -1.579668 -0.901382
  H 1.721392 -1.300780 -0.684184
  H 2.390980 2.106133 1.472685
  H 3.950847 1.322933 1.637555
  H 2.659215 0.933997 -1.812392
  H 5.161914 0.093556 -0.246186
  H 3.679444 -2.720612 -3.042689
  H 4.766654 -1.628629 -3.859117
  H 3.096882 0.199142 -3.777939
  H 1.937975 -0.883851 -2.959564
  H 6.376982 -1.653719 -0.969856
 23
 67.411516
  C 1.808984 -0.712851 0.355372
  C 2.555281 0.393353 0.358404
  C 2.947744 1.184449 1.550609
  H 2.483988 0.783499 2.445431
  C 3.233095 0.559927 -0.933363
  C 4.449383 -0.091848 -1.053217
  C 4.682991 -1.319224 -1.838455
  C 4.097911 -1.618093 -3.221868
  C 2.833439 -0.901947 -3.656497
  H 2.530339 -1.308094 -4.619555
  O 5.915367 -1.920585 -1.762056
  H 1.345402 -1.083385 1.255890
  H 3.986648 -1.790410 -1.037503
  H 1.530215 -1.204262 -0.556463
  H 2.618597 2.210031 1.411688
  H 4.028426 1.207410 1.681908
  H 2.596780 0.725304 -1.789708
  H 5.133961 0.007153 -0.214650
  H 3.954390 -2.698065 -3.277403
  H 4.897066 -1.375632 -3.925909
  H 3.002079 0.159230 -3.787230
  H 2.008481 -1.073886 -2.967899
  H 6.442931 -1.648537 -0.994608
 23
 58.752254
  C 1.638400 -0.632346 0.536654
  C 2.523380 0.371081 0.428294
  C 3.018437 1.217847 1.544137
  H 2.611580 0.891710 2.493916
  C 3.126523 0.371893 -0.904092
  C 4.375720 -0.179982 -1.059650
  C 4.701035 -1.366343 -1.866298
  C 4.175965 -1.639478 -3.289899
  C 2.957531 -0.874986 -3.770718
  H 2.739877 -1.202845 -4.787534
  O 6.000779 -1.833927 -1.806892
  H 1.194077 -0.912653 1.477630
  H 4.080627 -1.989902 -1.131205
  H 1.316410 -1.183540 -0.327866
  H 2.702325 2.244000 1.359530
  H 4.104807 1.217997 1.603588
  H 2.454814 0.483906 -1.729502
  H 5.087309 -0.017211 -0.239529
  H 4.001603 -2.714645 -3.365601
  H 5.017029 -1.419780 -3.948699
  H 3.144862 0.194296 -3.798676
  H 2.075317 -1.085724 -3.176533
  H 6.518429 -1.462758 -1.084564
 23
 48.923546
  C 1.432563 -0.432923 0.663639
  C 2.492125 0.386060 0.456689
  C 3.112038 1.244859 1.490276
  H 2.629702 1.105285 2.452763
  C 3.077799 0.167165 -0.849985
  C 4.358654 -0.310043 -1.002820
  C 4.771057 -1.393389 -1.913173
  C 4.327644 -1.530397 -3.383092
  C 2.990823 -0.961352 -3.809167
  H 2.861314 -1.174589 -4.868479
  O 6.103927 -1.751702 -1.870284
  H 0.977753 -0.567283 1.630601
  H 4.195455 -2.166996 -1.312790
  H 1.014159 -1.000642 -0.148910
  H 2.997402 2.284836 1.188428
  H 4.178025 1.058334 1.594748
  H 2.384181 0.104621 -1.673411
  H 5.058430 -0.116752 -0.194648
  H 4.370492 -2.592216 -3.631945
  H 5.122741 -1.047636 -3.953848
  H 2.956339 0.116312 -3.687233
  H 2.161350 -1.429296 -3.286647
  H 6.545129 -1.481351 -1.050939
 23
 47.115850
  C 1.450648 -0.426963 0.787207
  C 2.476858 0.402652 0.485468
  C 3.149222 1.292075 1.454403
  H 2.781762 1.127532 2.459845
  C 3.003332 0.103451 -0.840368
  C 4.296334 -0.311151 -1.000880
  C 4.663812 -1.454162 -1.882191
  C 4.381781 -1.468351 -3.405753
  C 3.056732 -0.939768 -3.922039
  H 3.044139 -1.076704 -5.001871
  O 5.971133 -1.912844 -1.744228
  H 1.128930 -0.572227 1.805478
  H 4.010765 -2.213325 -1.383902
  H 0.950348 -1.009568 0.039742
  H 2.937395 2.320224 1.175313
  H 4.226644 1.179001 1.438299
  H 2.272288 -0.184375 -1.581076
  H 5.029290 -0.036563 -0.261876
  H 4.525365 -2.496934 -3.730463
  H 5.193526 -0.877180 -3.841045
  H 2.944568 0.118332 -3.725245
  H 2.212318 -1.490401 -3.526710
  H 6.411908 -1.561850 -0.958336
