 18
 0.000000
  H 1.416371 0.063722 0.128180
  C 2.489048 0.067714 0.026074
  C 3.276698 -0.000521 1.304071
  C 2.396874 -0.081680 2.544798
  H 3.006474 -0.131784 3.441083
  C 3.066703 0.128967 -1.163230
  C 2.400101 0.204830 -2.504064
  C 0.877120 0.207317 -2.475440
  H 0.485871 0.264679 -3.485642
  H 4.148928 0.130321 -1.221862
  H 3.926819 0.879140 1.376084
  H 3.933759 -0.875419 1.273931
  H 1.766114 -0.967641 2.508069
  H 1.753635 0.793336 2.615178
  H 2.746632 -0.641416 -3.109906
  H 2.751273 1.111038 -3.012684
  H 0.505287 1.061943 -1.916182
  H 0.500412 -0.702136 -2.014565
 18
 -0.157051
  H 1.426193 -0.186670 0.111958
  C 2.493937 -0.055503 0.020207
  C 3.282458 -0.128590 1.298215
  C 2.398449 0.010222 2.531483
  H 2.995873 -0.040116 3.439085
  C 3.058348 0.174142 -1.152173
  C 2.397441 0.277542 -2.493132
  C 0.877984 0.171750 -2.468469
  H 0.479382 0.272117 -3.475701
  H 4.135631 0.297824 -1.194997
  H 4.031633 0.668437 1.286978
  H 3.819836 -1.081079 1.341141
  H 1.659698 -0.788024 2.563159
  H 1.874351 0.963607 2.517917
  H 2.804435 -0.508661 -3.138166
  H 2.687318 1.232936 -2.942763
  H 0.450348 0.957652 -1.850232
  H 0.566966 -0.792143 -2.072510
 18
 -0.624149
  H 1.457756 -0.408465 0.071298
  C 2.503943 -0.154859 0.009654
  C 3.275415 -0.247195 1.294512
  C 2.415083 0.109218 2.506461
  H 2.997704 0.041073 3.423703
  C 3.051219 0.230017 -1.132201
  C 2.385446 0.357437 -2.471751
  C 0.879216 0.139127 -2.462298
  H 0.475598 0.282955 -3.459120
  H 4.104754 0.478493 -1.147259
  H 4.130327 0.430429 1.232150
  H 3.662579 -1.265925 1.414668
  H 1.566919 -0.570828 2.587064
  H 2.033864 1.125297 2.415415
  H 2.849982 -0.360500 -3.155487
  H 2.604590 1.353791 -2.866939
  H 0.396390 0.843596 -1.791671
  H 0.639031 -0.870477 -2.139889
 18
 -0.020457
  H 1.534561 -0.752125 0.006494
  C 2.535977 -0.344109 -0.005194
  C 3.282875 -0.377380 1.298404
  C 2.425990 0.196357 2.427783
  H 2.985795 0.212584 3.362796
  C 3.039163 0.224612 -1.088109
  C 2.373281 0.421079 -2.423458
  C 0.865622 0.176929 -2.429767
  H 0.454152 0.402566 -3.414644
  H 4.075859 0.541074 -1.082647
  H 4.170878 0.257443 1.163388
  H 3.584886 -1.395525 1.553138
  H 1.529725 -0.405810 2.575317
  H 2.121287 1.212588 2.187135
  H 2.850496 -0.240080 -3.157943
  H 2.576728 1.446953 -2.749246
  H 0.375363 0.811250 -1.692975
  H 0.638070 -0.861560 -2.198075
 18
 2.700195
  H 1.658295 -1.028894 -0.106867
  C 2.599157 -0.502008 -0.041287
  C 3.273034 -0.503114 1.296134
  C 2.427446 0.302772 2.285724
  H 2.922755 0.352140 3.254836
  C 3.064159 0.211312 -1.054341
  C 2.355443 0.486030 -2.351522
  C 0.856450 0.199460 -2.330653
  H 0.396634 0.544493 -3.254594
  H 4.107835 0.502936 -1.064338
  H 4.208311 0.042613 1.146455
  H 3.434417 -1.507124 1.682565
  H 1.450501 -0.157820 2.423209
  H 2.281275 1.314101 1.916310
  H 2.825692 -0.091824 -3.156414
  H 2.514629 1.543829 -2.589432
  H 0.383707 0.711986 -1.495216
  H 0.664981 -0.868564 -2.235818
 18
 12.923657
  H 1.716640 -1.211697 -0.174851
  C 2.586288 -0.580823 -0.049178
  C 3.271951 -0.537165 1.287542
  C 2.409978 0.294230 2.253259
  H 2.965334 0.493932 3.167825
  C 3.068372 0.184175 -1.023651
  C 2.369675 0.487041 -2.326363
  C 0.852405 0.326013 -2.283649
  H 0.412936 0.638037 -3.229146
  H 4.138668 0.319431 -1.103318
  H 4.104992 0.128725 1.061044
  H 3.495854 -1.499994 1.731673
  H 1.496784 -0.235776 2.521848
  H 2.135384 1.235752 1.792184
  H 2.772884 -0.174644 -3.107059
  H 2.630115 1.509476 -2.620233
  H 0.428001 0.931091 -1.483505
  H 0.579042 -0.715720 -2.109427
 18
 33.180242
  H 1.805141 -1.489261 -0.216601
  C 2.591852 -0.760874 -0.065359
  C 3.247904 -0.520793 1.270879
  C 2.355241 0.317782 2.206380
  H 2.948765 0.680325 3.044978
  C 3.101937 0.035226 -1.017598
  C 2.408339 0.459792 -2.291644
  C 0.884374 0.394702 -2.203417
  H 0.431145 0.809958 -3.102680
  H 4.179325 0.050975 -1.137402
  H 3.852297 0.301315 0.861742
  H 3.625023 -1.399377 1.780850
  H 1.530325 -0.274099 2.607715
  H 1.930404 1.163601 1.676312
  H 2.761238 -0.120684 -3.152524
  H 2.704242 1.501954 -2.462432
  H 0.531524 0.963517 -1.342499
  H 0.545408 -0.636219 -2.092951
 18
 63.852781
  H 1.976803 -1.773406 -0.350833
  C 2.635145 -0.953465 -0.106675
  C 3.151865 -0.604191 1.235573
  C 2.347055 0.407659 2.076419
  H 2.988040 0.849539 2.834048
  C 3.125474 -0.006021 -0.955535
  C 2.423466 0.522633 -2.190003
  C 0.904583 0.438601 -2.096452
  H 0.441446 0.902510 -2.964799
  H 4.195434 -0.015590 -1.120382
  H 3.688559 0.304027 0.648357
  H 3.499644 -1.419136 1.864917
  H 1.520474 -0.091208 2.590905
  H 1.927439 1.198918 1.460350
  H 2.763058 -0.026369 -3.077723
  H 2.725768 1.564379 -2.325960
  H 0.551864 0.948507 -1.202418
  H 0.579665 -0.597012 -2.048156
 18
 81.525679
  H 2.059329 -1.885490 -0.367169
  C 2.670431 -1.041428 -0.088820
  C 3.071625 -0.653214 1.212632
  C 2.321274 0.422437 1.989307
  H 2.968600 0.899909 2.723495
  C 3.173643 -0.017303 -0.925669
  C 2.442907 0.539154 -2.136572
  C 0.926938 0.462888 -2.000939
  H 0.442791 0.921412 -2.860632
  H 4.244195 -0.043808 -1.121283
  H 3.630314 0.429671 0.366098
  H 3.397172 -1.437440 1.908019
  H 1.495732 -0.046883 2.531066
  H 1.905658 1.189358 1.338290
  H 2.758925 -0.003081 -3.034172
  H 2.743216 1.582442 -2.271398
  H 0.599840 0.982156 -1.102773
  H 0.599004 -0.570735 -1.935225
 18
 64.473197
  H 2.161078 -1.949263 -0.390573
  C 2.719859 -1.087623 -0.065822
  C 2.999675 -0.715054 1.220000
  C 2.295773 0.406314 1.943881
  H 2.948661 0.911123 2.658097
  C 3.224712 0.020406 -0.905515
  C 2.459863 0.552169 -2.102918
  C 0.949472 0.479776 -1.917045
  H 0.438136 0.892010 -2.784360
  H 4.294765 -0.048978 -1.138846
  H 3.566557 0.567461 0.109509
  H 3.273030 -1.482576 1.964382
  H 1.474509 -0.036626 2.502550
  H 1.890434 1.151999 1.264079
  H 2.749371 -0.011654 -2.991751
  H 2.750262 1.593229 -2.273915
  H 0.647083 1.044001 -1.037693
  H 0.626812 -0.550303 -1.787778
 18
 38.310701
  H 2.347916 -1.969512 -0.451216
  C 2.814357 -1.077233 -0.066513
  C 2.922855 -0.748094 1.242687
  C 2.271670 0.425969 1.923088
  H 2.875774 0.833892 2.736832
  C 3.284824 0.053411 -0.932423
  C 2.455741 0.551135 -2.104071
  C 0.957466 0.467699 -1.836557
  H 0.398925 0.916417 -2.655124
  H 4.337403 -0.080017 -1.228376
  H 3.546010 0.744383 -0.087194
  H 3.086307 -1.537194 1.987313
  H 1.346740 0.046521 2.355071
  H 2.028643 1.234936 1.237529
  H 2.701580 -0.036548 -2.990976
  H 2.725014 1.588818 -2.317225
  H 0.703846 0.993007 -0.918404
  H 0.641796 -0.567535 -1.734780
 18
 18.968660
  H 2.545893 -1.941409 -0.522585
  C 2.847964 -1.014132 -0.062819
  C 2.829110 -0.807079 1.243960
  C 2.294676 0.403976 1.949698
  H 2.954532 0.753540 2.745351
  C 3.285987 0.146071 -0.911075
  C 2.447779 0.548203 -2.120371
  C 0.951059 0.471306 -1.837771
  H 0.380884 0.785708 -2.709370
  H 4.326906 -0.037807 -1.218625
  H 3.472871 0.931169 -0.161466
  H 2.888031 -1.628713 1.956348
  H 1.355667 0.098538 2.409350
  H 2.097338 1.235430 1.278220
  H 2.694743 -0.101069 -2.963481
  H 2.704589 1.570555 -2.408691
  H 0.688431 1.117835 -1.003074
  H 0.659252 -0.544384 -1.583587
 18
 6.549155
  H 2.672373 -1.863866 -0.574061
  C 2.860500 -0.927695 -0.068160
  C 2.687879 -0.809985 1.240122
  C 2.351625 0.427550 2.015940
  H 3.017182 0.562589 2.869177
  C 3.288885 0.232734 -0.914665
  C 2.437823 0.524521 -2.150002
  C 0.944841 0.418463 -1.859255
  H 0.364850 0.705642 -2.733829
  H 4.324386 0.035603 -1.223495
  H 3.384348 1.095415 -0.247316
  H 2.627137 -1.682508 1.883867
  H 1.341683 0.296295 2.404698
  H 2.370010 1.331870 1.415806
  H 2.705626 -0.168926 -2.950216
  H 2.659532 1.534476 -2.502946
  H 0.672457 1.073681 -1.034697
  H 0.675872 -0.598933 -1.587242
 18
 0.790525
  H 2.985042 -1.861468 -0.576513
  C 2.940260 -0.901133 -0.078954
  C 2.603456 -0.839635 1.198588
  C 2.293841 0.386719 2.000265
  H 2.990642 0.489030 2.832822
  C 3.320722 0.276328 -0.924497
  C 2.431801 0.467525 -2.154340
  C 0.951910 0.488170 -1.790634
  H 0.343714 0.667668 -2.674594
  H 4.354603 0.114199 -1.249922
  H 3.333510 1.170764 -0.298237
  H 2.504132 -1.738417 1.796215
  H 1.293835 0.280649 2.421055
  H 2.319518 1.297377 1.410960
  H 2.622335 -0.336908 -2.868351
  H 2.694242 1.410257 -2.640569
  H 0.749643 1.276358 -1.068624
  H 0.653800 -0.460556 -1.350945
 18
 -0.752222
  H 3.287967 -1.858391 -0.536037
  C 3.064538 -0.902637 -0.078740
  C 2.596607 -0.876234 1.158737
  C 2.186287 0.328118 1.944180
  H 2.913012 0.526126 2.733013
  C 3.362219 0.286924 -0.939324
  C 2.416550 0.399344 -2.137935
  C 0.971794 0.617023 -1.705450
  H 0.317137 0.670776 -2.572508
  H 4.387136 0.182999 -1.306696
  H 3.317645 1.190580 -0.328493
  H 2.511342 -1.798863 1.719323
  H 1.225640 0.138893 2.422669
  H 2.092621 1.216242 1.327476
  H 2.484395 -0.513785 -2.733607
  H 2.735559 1.233864 -2.766490
  H 0.876585 1.546159 -1.147188
  H 0.639973 -0.200211 -1.069201
