 28
 0.000000
  C 0.959373 0.142288 0.405470
  C 2.432548 0.140383 0.400230
  C 3.223099 0.606717 1.560595
  C 2.458001 1.098811 2.785614
  C 3.422426 1.539511 3.882545
  C 3.050436 -0.324352 -0.756767
  C 4.432067 -0.411066 -0.973464
  C 5.097952 -0.858714 -2.089513
  C 4.627628 -1.378724 -3.385519
  C 3.145309 -1.506232 -3.703332
  H 3.016733 -1.906909 -4.702049
  H 6.178624 -0.846027 -2.058422
  H 0.528722 0.513007 1.328134
  H 0.587650 -0.869120 0.234454
  H 0.587326 0.754029 -0.417779
  H 3.882166 1.414356 1.221757
  H 3.882339 -0.210717 1.874683
  H 1.821498 0.304086 3.179061
  H 1.821420 1.944814 2.519949
  H 4.058199 0.715211 4.198041
  H 2.869867 1.888496 4.751417
  H 4.058118 2.353037 3.540077
  H 2.394638 -0.643117 -1.550109
  H 5.060224 -0.083042 -0.156703
  H 5.097602 -2.363739 -3.506081
  H 5.097674 -0.750312 -4.153529
  H 2.658486 -0.534056 -3.665681
  H 2.658486 -2.182819 -3.004219
 28
 5.630043
  C 0.952198 0.153012 0.431471
  C 2.419615 0.142256 0.404250
  C 3.223478 0.603404 1.551988
  C 2.474188 1.098420 2.784622
  C 3.456612 1.533241 3.867771
  C 3.014346 -0.325851 -0.761160
  C 4.356917 -0.428779 -1.018218
  C 5.081643 -0.857980 -2.088373
  C 4.664919 -1.379792 -3.388279
  C 3.188423 -1.513142 -3.719342
  H 3.078660 -1.916012 -4.723171
  H 6.156663 -0.815722 -1.984092
  H 0.541563 0.526517 1.361061
  H 0.572194 -0.854764 0.257220
  H 0.571813 0.759860 -0.391587
  H 3.885402 1.407569 1.208702
  H 3.885477 -0.214707 1.860338
  H 1.839683 0.306279 3.185776
  H 1.839787 1.948071 2.526524
  H 4.092056 0.705125 4.173722
  H 2.919945 1.885475 4.744996
  H 4.092248 2.342880 3.516113
  H 2.327092 -0.638855 -1.540072
  H 4.793567 -0.073454 -0.133459
  H 5.152827 -2.356908 -3.502056
  H 5.152439 -0.752294 -4.146136
  H 2.692697 -0.546108 -3.691501
  H 2.693316 -2.192977 -3.030628
 28
 15.575943
  C 0.930633 0.170691 0.472923
  C 2.400589 0.145673 0.410653
  C 3.222110 0.603329 1.551313
  C 2.487041 1.102955 2.796417
  C 3.487576 1.531548 3.866718
  C 2.957520 -0.332924 -0.781779
  C 4.307929 -0.448032 -1.069237
  C 5.091843 -0.861233 -2.099717
  C 4.716556 -1.388872 -3.411056
  C 3.240043 -1.529983 -3.756571
  H 3.138096 -1.935180 -4.763775
  H 6.160143 -0.794673 -1.937086
  H 0.543878 0.546957 1.409577
  H 0.536938 -0.833399 0.300554
  H 0.536884 0.776513 -0.346078
  H 3.886342 1.409645 1.209739
  H 3.886185 -0.215520 1.861883
  H 1.854989 0.313283 3.206138
  H 1.855843 1.957472 2.546867
  H 4.122253 0.699599 4.163885
  H 2.965290 1.886690 4.751548
  H 4.123400 2.337592 3.506976
  H 2.211103 -0.628862 -1.518837
  H 4.547900 -0.067235 -0.121139
  H 5.220551 -2.362332 -3.519159
  H 5.218384 -0.760165 -4.163477
  H 2.740444 -0.565897 -3.732338
  H 2.742926 -2.210105 -3.071071
 28
 29.746870
  C 0.935888 0.179027 0.492636
  C 2.401488 0.148041 0.415346
  C 3.224690 0.601541 1.546345
  C 2.489540 1.101679 2.793757
  C 3.493086 1.529888 3.863988
  C 2.943934 -0.332589 -0.782736
  C 4.298712 -0.459754 -1.099917
  C 5.115057 -0.862679 -2.104505
  C 4.746897 -1.395272 -3.426584
  C 3.257758 -1.531747 -3.758966
  H 3.139029 -1.937837 -4.767053
  H 6.166466 -0.788181 -1.922769
  H 0.561419 0.556199 1.432001
  H 0.535892 -0.823772 0.324400
  H 0.535845 0.787015 -0.322315
  H 3.888341 1.409654 1.206134
  H 3.888269 -0.217888 1.858665
  H 1.856613 0.311136 3.204582
  H 1.857538 1.957668 2.544917
  H 4.128153 0.697179 4.160506
  H 2.971610 1.885261 4.750045
  H 4.129367 2.336264 3.503660
  H 2.170657 -0.616480 -1.490015
  H 4.381467 -0.067629 -0.123588
  H 5.251759 -2.370881 -3.537207
  H 5.249156 -0.766926 -4.182843
  H 2.762276 -0.564712 -3.726986
  H 2.765311 -2.208307 -3.065202
 28
 44.270520
  C 0.921436 0.186011 0.491394
  C 2.390488 0.156879 0.416955
  C 3.223848 0.610254 1.559524
  C 2.501264 1.101037 2.802371
  C 3.509476 1.522156 3.866731
  C 2.933069 -0.318209 -0.780405
  C 4.294326 -0.456888 -1.116964
  C 5.118673 -0.858361 -2.115281
  C 4.757465 -1.400834 -3.432364
  C 3.283320 -1.546439 -3.761190
  H 3.167396 -1.957279 -4.761012
  H 6.186852 -0.775428 -1.931187
  H 0.542398 0.561782 1.438170
  H 0.523810 -0.812685 0.319828
  H 0.523576 0.794987 -0.318262
  H 3.883679 1.416737 1.225860
  H 3.885145 -0.205650 1.867023
  H 1.870730 0.309601 3.212083
  H 1.870125 1.958345 2.560421
  H 4.145223 0.686721 4.156054
  H 2.993026 1.874078 4.757007
  H 4.144857 2.329664 3.506330
  H 2.136834 -0.599103 -1.493281
  H 4.246133 -0.063144 -0.135454
  H 5.265776 -2.371504 -3.536832
  H 5.253751 -0.774913 -4.189293
  H 2.781735 -0.577917 -3.732461
  H 2.793372 -2.222294 -3.058077
 28
 57.351680
  C 0.899672 0.224393 0.467241
  C 2.380952 0.202056 0.393985
  C 3.226040 0.635973 1.555228
  C 2.504677 1.087025 2.825622
  C 3.519925 1.477871 3.902340
  C 2.937168 -0.236537 -0.789215
  C 4.306297 -0.414752 -1.163054
  C 5.123858 -0.812522 -2.138523
  C 4.770326 -1.429038 -3.439432
  C 3.296167 -1.626533 -3.726491
  H 3.173795 -2.068958 -4.710303
  H 6.182279 -0.687365 -1.984396
  H 0.526566 0.574975 1.418501
  H 0.499656 -0.773303 0.278167
  H 0.497775 0.859797 -0.323448
  H 3.884676 1.460272 1.250435
  H 3.886873 -0.198275 1.831294
  H 1.874626 0.279214 3.214230
  H 1.870330 1.954665 2.612489
  H 4.157764 0.635427 4.162637
  H 3.007088 1.800771 4.805292
  H 4.152207 2.296873 3.565017
  H 2.154514 -0.494964 -1.524273
  H 4.171985 -0.018429 -0.173940
  H 5.301270 -2.384145 -3.528525
  H 5.225236 -0.795647 -4.211171
  H 2.770372 -0.675519 -3.715987
  H 2.842038 -2.296702 -3.000626
 28
 63.406898
  C 0.885253 0.278294 0.454040
  C 2.384973 0.258028 0.383509
  C 3.228431 0.657766 1.560875
  C 2.500719 1.055908 2.837994
  C 3.503681 1.414540 3.923556
  C 2.960045 -0.131993 -0.782731
  C 4.332480 -0.359030 -1.223544
  C 5.131430 -0.755429 -2.179640
  C 4.780596 -1.462350 -3.459220
  C 3.300382 -1.715789 -3.671921
  H 3.158695 -2.219565 -4.630831
  H 6.198671 -0.586577 -2.072986
  H 0.518961 0.598071 1.422992
  H 0.481148 -0.713373 0.242145
  H 0.482359 0.950799 -0.304225
  H 3.873225 1.497927 1.282759
  H 3.886879 -0.184652 1.808411
  H 1.880721 0.235253 3.193881
  H 1.864856 1.920213 2.654412
  H 4.145641 0.569649 4.154306
  H 2.986753 1.700822 4.833212
  H 4.128564 2.247966 3.616201
  H 2.217857 -0.357522 -1.559482
  H 4.153645 0.051053 -0.220532
  H 5.332432 -2.402249 -3.498922
  H 5.174081 -0.844884 -4.268104
  H 2.744770 -0.782780 -3.700655
  H 2.895877 -2.358772 -2.894584
 28
 68.152612
  C 0.909719 0.310608 0.443136
  C 2.394704 0.290670 0.386568
  C 3.232098 0.669983 1.583874
  C 2.483605 1.043329 2.867369
  C 3.479143 1.388356 3.981484
  C 2.974438 -0.076053 -0.784237
  C 4.350561 -0.326524 -1.284588
  C 5.134599 -0.731426 -2.239213
  C 4.775295 -1.490338 -3.485843
  C 3.296547 -1.780524 -3.658410
  H 3.146963 -2.324006 -4.587466
  H 6.201871 -0.538751 -2.166283
  H 0.541277 0.608187 1.412331
  H 0.510462 -0.671804 0.209995
  H 0.515604 0.999151 -0.299019
  H 3.874592 1.518579 1.322698
  H 3.891696 -0.175088 1.821507
  H 1.859435 0.207438 3.201285
  H 1.841028 1.913181 2.692663
  H 4.126102 0.538590 4.204956
  H 2.947787 1.655674 4.895084
  H 4.106573 2.234526 3.697223
  H 2.252960 -0.288711 -1.584170
  H 4.133601 0.107047 -0.285991
  H 5.347658 -2.419838 -3.489497
  H 5.140253 -0.893509 -4.326012
  H 2.722847 -0.859701 -3.718844
  H 2.919102 -2.397061 -2.846550
 28
 72.126827
  C 0.913305 0.363953 0.419011
  C 2.402491 0.343483 0.377171
  C 3.233820 0.680517 1.589709
  C 2.481027 1.008504 2.879581
  C 3.464211 1.314598 3.998895
  C 2.989451 0.015499 -0.803493
  C 4.370731 -0.253658 -1.334348
  C 5.142474 -0.675837 -2.291271
  C 4.772237 -1.516538 -3.478066
  C 3.295549 -1.866302 -3.581385
  H 3.134355 -2.472215 -4.463779
  H 6.198695 -0.441390 -2.262183
  H 0.530829 0.630248 1.405529
  H 0.511375 -0.619983 0.143730
  H 0.523227 1.086483 -0.309735
  H 3.873642 1.535331 1.359644
  H 3.893493 -0.165280 1.800326
  H 1.860862 0.165040 3.181504
  H 1.840645 1.878036 2.734373
  H 4.108190 0.464214 4.193745
  H 2.932665 1.548222 4.913746
  H 4.086758 2.165711 3.746771
  H 2.287788 -0.157964 -1.621634
  H 4.110028 0.208048 -0.350502
  H 5.379347 -2.427313 -3.438935
  H 5.088728 -0.960737 -4.365405
  H 2.688165 -0.970335 -3.683839
  H 2.965251 -2.438787 -2.716553
 28
 74.981525
  C 0.916202 0.427455 0.393291
  C 2.405017 0.402998 0.356625
  C 3.229601 0.686344 1.574790
  C 2.470484 0.966039 2.879398
  C 3.457136 1.227041 4.023237
  C 2.998148 0.113643 -0.837828
  C 4.383049 -0.169985 -1.386008
  C 5.138742 -0.613942 -2.341931
  C 4.763818 -1.546047 -3.458080
  C 3.304270 -1.960797 -3.482478
  H 3.137705 -2.638204 -4.320685
  H 6.194005 -0.332773 -2.362468
  H 0.533083 0.654902 1.379804
  H 0.514546 -0.535813 0.079936
  H 0.534246 1.171685 -0.302613
  H 3.872486 1.547100 1.378545
  H 3.890673 -0.169787 1.751810
  H 1.845446 0.110430 3.145314
  H 1.830250 1.843895 2.766068
  H 4.104454 0.360822 4.188443
  H 2.918093 1.426870 4.952696
  H 4.088466 2.093782 3.806549
  H 2.305991 -0.019642 -1.671255
  H 4.080391 0.328506 -0.413788
  H 5.408357 -2.424600 -3.380042
  H 5.024138 -1.041710 -4.387516
  H 2.656231 -1.099876 -3.624079
  H 3.028568 -2.482208 -2.566721
 28
 76.930195
  C 0.916450 0.486601 0.365249
  C 2.405893 0.458956 0.337377
  C 3.229293 0.689852 1.568962
  C 2.468716 0.923551 2.879768
  C 3.449429 1.133635 4.031495
  C 3.004287 0.205696 -0.868876
  C 4.387293 -0.093108 -1.434358
  C 5.132193 -0.559734 -2.389138
  C 4.757430 -1.576689 -3.432577
  C 3.316781 -2.050505 -3.374552
  H 3.149774 -2.783172 -4.156519
  H 6.167687 -0.242382 -2.460319
  H 0.524699 0.680578 1.363272
  H 0.512663 -0.467618 0.011587
  H 0.538464 1.260001 -0.309877
  H 3.878895 1.553989 1.407798
  H 3.886798 -0.175623 1.714003
  H 1.838519 0.063501 3.110260
  H 1.834609 1.807428 2.798817
  H 4.087980 0.262256 4.164427
  H 2.911368 1.300010 4.961915
  H 4.083391 1.999861 3.851201
  H 2.318600 0.121712 -1.714329
  H 4.051858 0.446463 -0.465783
  H 5.441379 -2.423088 -3.323691
  H 4.963326 -1.122638 -4.402240
  H 2.627009 -1.227497 -3.544890
  H 3.096575 -2.520660 -2.416152
 28
 77.983121
  C 0.910639 0.540358 0.348061
  C 2.398835 0.502984 0.321033
  C 3.225865 0.685833 1.554458
  C 2.467575 0.877638 2.873952
  C 3.451855 1.042136 4.034862
  C 2.998176 0.294463 -0.901002
  C 4.365702 -0.029123 -1.487463
  C 5.117609 -0.519851 -2.422452
  C 4.758325 -1.612179 -3.391175
  C 3.333284 -2.123766 -3.273430
  H 3.174307 -2.916644 -4.002003
  H 6.141717 -0.167326 -2.534478
  H 0.518626 0.699615 1.350930
  H 0.501713 -0.395685 -0.042331
  H 0.538370 1.339426 -0.298307
  H 3.881076 1.551607 1.422946
  H 3.880908 -0.186891 1.666217
  H 1.831781 0.012278 3.074340
  H 1.837041 1.768305 2.824039
  H 4.087595 0.161184 4.137325
  H 2.913811 1.178800 4.973369
  H 4.092228 1.912869 3.885132
  H 2.316976 0.237343 -1.750547
  H 4.014280 0.567804 -0.522864
  H 5.468998 -2.429171 -3.240963
  H 4.933205 -1.215358 -4.391857
  H 2.615473 -1.334887 -3.485084
  H 3.144251 -2.531058 -2.280297
 28
 78.019290
  C 0.894403 0.603684 0.346960
  C 2.377516 0.550321 0.310180
  C 3.218696 0.681804 1.541587
  C 2.472915 0.834188 2.871485
  C 3.467566 0.947737 4.030024
  C 2.967984 0.378706 -0.932045
  C 4.307250 0.014399 -1.540350
  C 5.090295 -0.491360 -2.438549
  C 4.774213 -1.654877 -3.343369
  C 3.367501 -2.203843 -3.195908
  H 3.236357 -3.040523 -3.866729
  H 6.095607 -0.108673 -2.566845
  H 0.509290 0.732276 1.356488
  H 0.473938 -0.310722 -0.073613
  H 0.528188 1.425590 -0.267614
  H 3.885447 1.550077 1.436348
  H 3.869532 -0.204241 1.617966
  H 1.829798 -0.031607 3.045691
  H 1.850483 1.732352 2.857243
  H 4.094111 0.058816 4.096004
  H 2.938115 1.056059 4.976081
  H 4.114459 1.815584 3.906278
  H 2.282594 0.339323 -1.784261
  H 3.957086 0.680271 -0.578244
  H 5.510311 -2.437733 -3.141574
  H 4.939761 -1.313482 -4.365922
  H 2.626620 -1.453776 -3.456140
  H 3.189115 -2.550624 -2.180676
 28
 75.183417
  C 0.867640 0.691458 0.346074
  C 2.345068 0.620478 0.284207
  C 3.209930 0.676368 1.501797
  C 2.491639 0.763632 2.850723
  C 3.506228 0.804023 3.991428
  C 2.915143 0.504858 -0.987043
  C 4.206799 0.075053 -1.605953
  C 5.041446 -0.450623 -2.437860
  C 4.801341 -1.702011 -3.244813
  C 3.420213 -2.299958 -3.064645
  H 3.334748 -3.200371 -3.660193
  H 6.032194 -0.027681 -2.580473
  H 0.501525 0.773087 1.359841
  H 0.429237 -0.192743 -0.113888
  H 0.502959 1.546743 -0.220096
  H 3.882091 1.538304 1.434184
  H 3.850371 -0.214944 1.517749
  H 1.843680 -0.102208 2.989579
  H 1.880367 1.665400 2.896718
  H 4.123114 -0.092571 3.996562
  H 2.996409 0.865984 4.950230
  H 4.159413 1.670052 3.902404
  H 2.222366 0.477365 -1.825311
  H 3.874900 0.853592 -0.665455
  H 5.568304 -2.426354 -2.964898
  H 4.967444 -1.442574 -4.289787
  H 2.652649 -1.609140 -3.394277
  H 3.243817 -2.560652 -2.025292
