 13
 0.000000
  H 3.588320 -0.601994 -0.993756
  C 4.662024 -0.609233 -1.007967
  C 5.373786 -1.120377 -2.011426
  C 6.816336 -1.130718 -2.031724
  C 7.535585 -1.640166 -3.031861
  C 9.024801 -1.660846 -3.072453
  H 5.162874 -0.175070 -0.155634
  H 4.868980 -1.555010 -2.864685
  H 7.320698 -0.695967 -1.178235
  H 7.037419 -2.076423 -3.888291
  H 9.462648 -1.208613 -2.184651
  H 9.382287 -1.116780 -3.947453
  H 9.382288 -2.688510 -3.146841
 13
 0.334213
  H 3.595175 -0.631725 -1.011641
  C 4.668938 -0.676429 -0.984902
  C 5.382898 -1.136816 -2.007064
  C 6.826533 -1.195487 -2.019676
  C 7.541436 -1.618289 -3.061377
  C 9.030487 -1.681278 -3.092828
  H 5.133627 -0.330555 -0.077907
  H 4.888291 -1.483446 -2.906187
  H 7.329247 -0.856705 -1.123047
  H 7.033669 -1.957874 -3.954817
  H 9.465233 -0.985048 -2.378413
  H 9.406270 -1.450054 -4.088436
  H 9.369971 -2.687390 -2.837615
 13
 0.967574
  H 3.598206 -0.681628 -0.975614
  C 4.673180 -0.732454 -0.955659
  C 5.383594 -1.087412 -2.021561
  C 6.824818 -1.178101 -2.032697
  C 7.536955 -1.557991 -3.093169
  C 9.026895 -1.675360 -3.099252
  H 5.147350 -0.479827 -0.021256
  H 4.883487 -1.335651 -2.949352
  H 7.329178 -0.918416 -1.110228
  H 7.026262 -1.815090 -4.011986
  H 9.484619 -0.794491 -2.651707
  H 9.407268 -1.793136 -4.110319
  H 9.339892 -2.541509 -2.514787
 13
 1.003925
  H 3.606871 -0.653762 -0.964590
  C 4.677248 -0.764149 -0.936566
  C 5.381533 -1.097337 -2.013380
  C 6.817203 -1.248877 -2.017501
  C 7.532697 -1.531954 -3.105793
  C 9.020935 -1.665135 -3.112517
  H 5.151848 -0.589857 0.015201
  H 4.880584 -1.266745 -2.958129
  H 7.316004 -1.114248 -1.065786
  H 7.029010 -1.661338 -4.054743
  H 9.486571 -0.688572 -2.973790
  H 9.374356 -2.082191 -4.051541
  H 9.355163 -2.303942 -2.296119
 13
 3.245003
  H 3.729216 -0.291071 -1.042709
  C 4.756664 -0.603544 -0.976509
  C 5.369047 -1.226550 -1.977408
  C 6.779483 -1.543399 -1.969204
  C 7.507100 -1.616209 -3.084073
  C 8.996079 -1.540662 -3.116344
  H 5.257764 -0.406520 -0.043003
  H 4.834614 -1.418932 -2.900538
  H 7.268914 -1.556931 -1.003052
  H 7.005880 -1.586172 -4.043208
  H 9.269982 -0.491812 -2.991435
  H 9.396036 -1.891970 -4.064214
  H 9.446541 -2.106303 -2.303999
 13
 10.965977
  H 3.949048 -0.044001 -1.132693
  C 4.920360 -0.496856 -1.051923
  C 5.365089 -1.355983 -1.961961
  C 6.734996 -1.823817 -1.954449
  C 7.472754 -1.805177 -3.066526
  C 8.921144 -1.434518 -3.080325
  H 5.475841 -0.274171 -0.157993
  H 4.793334 -1.511283 -2.871355
  H 7.229586 -1.872232 -0.988073
  H 6.965160 -1.767646 -4.023899
  H 8.899678 -0.363698 -2.860224
  H 9.378733 -1.591523 -4.053479
  H 9.493999 -1.935944 -2.306471
 13
 24.448919
  H 4.238797 0.164755 -1.269767
  C 5.140319 -0.423466 -1.142359
  C 5.397283 -1.437979 -1.956703
  C 6.692586 -2.050459 -1.952541
  C 7.446907 -1.972211 -3.065311
  C 8.795600 -1.328719 -3.030934
  H 5.668235 -0.260025 -0.221021
  H 4.792500 -1.552997 -2.849392
  H 7.211818 -2.098891 -0.983667
  H 6.942174 -1.954454 -4.012355
  H 8.491412 -0.307295 -2.770941
  H 9.285484 -1.341576 -4.006693
  H 9.461859 -1.705159 -2.234152
 13
 42.246513
  H 4.536684 0.275012 -1.376338
  C 5.401861 -0.371288 -1.254165
  C 5.462847 -1.488219 -1.971100
  C 6.676402 -2.233135 -1.961271
  C 7.439722 -2.092491 -3.057289
  C 8.621167 -1.238451 -2.942067
  H 5.912944 -0.266059 -0.324678
  H 4.811085 -1.574872 -2.862599
  H 7.206238 -2.266920 -1.013014
  H 6.915987 -2.085440 -4.030225
  H 8.076388 -0.299720 -2.661987
  H 9.144974 -1.097323 -3.907904
  H 9.314419 -1.467301 -2.124035
 13
 64.285718
  H 4.915797 0.364016 -1.565552
  C 5.683721 -0.362942 -1.400081
  C 5.521508 -1.557573 -1.974250
  C 6.659193 -2.370246 -1.939075
  C 7.424553 -2.163893 -3.084497
  C 8.421858 -1.151292 -2.877797
  H 6.191077 -0.264201 -0.463482
  H 4.877812 -1.606646 -2.850730
  H 7.218271 -2.368841 -1.015496
  H 6.905421 -2.192785 -4.032546
  H 7.633830 -0.287487 -2.500711
  H 8.945666 -0.824171 -3.778645
  H 9.096320 -1.262576 -1.999203
 13
 79.071294
  H 5.233965 0.484371 -1.696303
  C 5.891043 -0.345851 -1.484608
  C 5.555102 -1.598510 -2.029025
  C 6.678251 -2.436296 -1.938246
  C 7.443240 -2.202731 -3.092370
  C 8.302004 -1.117006 -2.842086
  H 6.335953 -0.304964 -0.499719
  H 4.934695 -1.634570 -2.914588
  H 7.221577 -2.395066 -0.996912
  H 6.976901 -2.286773 -4.064969
  H 7.195047 -0.216952 -2.280677
  H 8.778918 -0.649915 -3.690752
  H 8.919499 -1.132203 -1.954257
 13
 67.068781
  H 5.159215 0.529285 -1.649092
  C 5.866830 -0.251234 -1.433008
  C 5.576307 -1.585747 -2.037092
  C 6.714866 -2.410334 -1.938275
  C 7.515706 -2.194815 -3.126225
  C 8.390244 -1.177964 -2.930923
  H 6.176836 -0.284004 -0.398833
  H 4.998064 -1.599495 -2.931386
  H 7.251233 -2.394456 -1.024270
  H 7.066276 -2.335681 -4.119845
  H 6.866793 -0.027031 -2.079026
  H 8.892442 -0.712252 -3.798860
  H 8.944272 -1.130717 -2.017183
 13
 51.222787
  H 4.924271 0.466448 -1.529782
  C 5.751128 -0.194878 -1.352299
  C 5.632652 -1.503608 -2.050444
  C 6.753442 -2.274068 -2.000343
  C 7.545149 -2.180403 -3.172037
  C 8.521936 -1.277382 -3.037618
  H 5.984548 -0.257291 -0.290229
  H 5.047668 -1.511075 -2.961230
  H 7.310973 -2.249739 -1.043248
  H 7.080958 -2.377731 -4.126392
  H 6.702819 0.177660 -1.891970
  H 9.057664 -0.910608 -3.895137
  H 9.032685 -1.177929 -2.118803
 13
 37.063620
  H 4.696044 0.435726 -1.388771
  C 5.595124 -0.142109 -1.254694
  C 5.660885 -1.400605 -2.076468
  C 6.782718 -2.125339 -1.999646
  C 7.595757 -2.176056 -3.196510
  C 8.666364 -1.379183 -3.165298
  H 5.765167 -0.311243 -0.193427
  H 5.120970 -1.393741 -3.009684
  H 7.327123 -2.097849 -1.028782
  H 7.125637 -2.427776 -4.108385
  H 6.505445 0.380393 -1.721031
  H 9.223096 -1.105661 -4.057003
  H 9.176441 -1.201887 -2.242416
 13
 23.123915
  H 4.500032 0.359050 -1.336516
  C 5.464417 -0.116214 -1.187826
  C 5.693877 -1.282234 -2.087689
  C 6.838071 -1.969641 -2.013402
  C 7.636181 -2.142845 -3.213726
  C 8.780312 -1.470416 -3.236482
  H 5.601886 -0.350728 -0.135193
  H 5.162468 -1.272050 -3.031947
  H 7.384376 -1.946834 -1.074385
  H 7.138459 -2.447920 -4.123932
  H 6.271235 0.560486 -1.507235
  H 9.352690 -1.313102 -4.135386
  H 9.280618 -1.208671 -2.318449
 13
 1.029602
  H 4.048721 -0.303659 -1.007533
  C 5.127527 -0.164462 -0.996012
  C 5.777872 -0.856782 -2.146433
  C 7.042150 -1.278781 -2.135312
  C 7.716487 -1.827430 -3.289741
  C 9.037143 -1.963472 -3.354540
  H 5.525094 -0.524419 -0.050134
  H 5.188133 -0.961615 -3.047282
  H 7.641283 -1.163181 -1.241901
  H 7.094979 -2.076330 -4.138537
  H 5.331092 0.904655 -1.057307
  H 9.546695 -2.324025 -4.231257
  H 9.661853 -1.695814 -2.516755
