 21
 0.000000
  C 0.901480 0.052564 0.204165
  C 2.401306 0.058520 0.098563
  C 3.254233 -0.012130 1.350700
  C 2.529720 -0.087794 2.691577
  C 3.527527 -0.152751 3.842843
  C 3.008886 0.125035 -1.080201
  C 2.361879 0.200896 -2.424631
  H 1.277782 0.199230 -2.395060
  H 4.091489 0.127234 -1.119141
  H 0.561982 -0.005441 1.232098
  H 0.486643 -0.803778 -0.325642
  H 0.486646 0.963073 -0.225941
  H 3.905395 0.867109 1.368880
  H 3.905402 -0.887836 1.269857
  H 1.896093 -0.976724 2.726340
  H 1.896089 0.791575 2.826123
  H 4.162632 -1.031474 3.752068
  H 3.005338 -0.206522 4.795724
  H 4.162625 0.730601 3.851495
  H 2.691212 -0.642972 -3.033864
  H 2.691214 1.107949 -2.935067
 21
 13.588632
  C 0.879829 0.050087 0.248060
  C 2.373219 0.055927 0.144526
  C 3.235245 -0.013909 1.382225
  C 2.523129 -0.089935 2.729498
  C 3.532332 -0.154327 3.870751
  C 3.046584 0.130629 -1.179332
  C 2.386867 0.205719 -2.510090
  H 1.302536 0.203075 -2.463185
  H 4.125172 0.132969 -1.220792
  H 0.540957 -0.007904 1.275742
  H 0.465071 -0.806055 -0.283656
  H 0.465074 0.960613 -0.183964
  H 3.886836 0.865851 1.393740
  H 3.886840 -0.889380 1.294700
  H 1.890379 -0.979400 2.770191
  H 1.890375 0.789300 2.869996
  H 4.167084 -1.032647 3.773419
  H 3.019795 -0.208392 4.828855
  H 4.167081 0.729368 3.872842
  H 2.708162 -0.638446 -3.123480
  H 2.708163 1.113531 -3.024622
 21
 40.208437
  C 0.851171 0.051836 0.217081
  C 2.338921 0.052169 0.211149
  C 3.227322 -0.015541 1.411172
  C 2.528463 -0.092167 2.769056
  C 3.551810 -0.155885 3.898261
  C 3.101651 0.134375 -1.245704
  C 2.388053 0.207538 -2.542313
  H 1.307814 0.201158 -2.429385
  H 4.177725 0.133936 -1.237910
  H 0.464278 -0.005422 1.231741
  H 0.457357 -0.803348 -0.337856
  H 0.457357 0.964021 -0.238126
  H 3.885210 0.863200 1.411119
  H 3.885205 -0.888687 1.312266
  H 1.896508 -0.981791 2.818061
  H 1.896497 0.786300 2.917831
  H 4.186623 -1.032939 3.791107
  H 3.052460 -0.210350 4.863501
  H 4.186617 0.727658 3.890450
  H 2.678115 -0.637463 -3.175477
  H 2.678118 1.118405 -3.076415
 21
 70.640812
  C 0.838860 0.049630 0.256184
  C 2.320049 0.049532 0.257884
  C 3.223547 -0.017130 1.439325
  C 2.525865 -0.093668 2.795644
  C 3.547016 -0.157476 3.926468
  C 3.145055 0.140032 -1.345927
  C 2.401448 0.211815 -2.618073
  H 1.327320 0.203480 -2.470458
  H 4.218659 0.139091 -1.329226
  H 0.450914 -0.007677 1.271718
  H 0.446285 -0.801046 -0.300971
  H 0.446286 0.957585 -0.201733
  H 3.880634 0.859730 1.436563
  H 3.880639 -0.888113 1.337936
  H 1.893234 -0.982791 2.841132
  H 1.893226 0.784694 2.940868
  H 4.181957 -1.034740 3.820254
  H 3.046329 -0.211880 4.890580
  H 4.181960 0.726181 3.919612
  H 2.671242 -0.631656 -3.259640
  H 2.671241 1.122094 -3.160682
 21
 100.265295
  C 0.820752 0.048016 0.284776
  C 2.297419 0.046809 0.306131
  C 3.215981 -0.018755 1.468132
  C 2.523796 -0.095711 2.831862
  C 3.549334 -0.159289 3.958576
  C 3.188297 0.145492 -1.442729
  C 2.414862 0.216040 -2.692992
  H 1.343296 0.205820 -2.511941
  H 4.260616 0.143804 -1.412773
  H 0.422977 -0.009126 1.297396
  H 0.431270 -0.803032 -0.280493
  H 0.431271 0.957253 -0.181163
  H 3.874708 0.859561 1.460117
  H 3.874703 -0.890583 1.361361
  H 1.890970 -0.984933 2.878172
  H 1.890957 0.782663 2.977913
  H 4.183965 -1.036374 3.849685
  H 3.052526 -0.213822 4.924986
  H 4.183962 0.724483 3.949039
  H 2.665701 -0.629367 -3.344686
  H 2.665701 1.129391 -3.245448
 21
 126.539937
  C 0.802378 0.046265 0.315817
  C 2.273347 0.044092 0.354287
  C 3.204618 -0.020449 1.498162
  C 2.521086 -0.097679 2.866756
  C 3.552347 -0.160913 3.987384
  C 3.229127 0.150985 -1.540082
  C 2.430611 0.220295 -2.768396
  H 1.365403 0.208463 -2.558771
  H 4.299803 0.148657 -1.498802
  H 0.394520 -0.010722 1.325710
  H 0.417372 -0.802218 -0.254519
  H 0.417374 0.953523 -0.155447
  H 3.863159 0.857228 1.485089
  H 3.863158 -0.891077 1.386437
  H 1.888595 -0.986633 2.914519
  H 1.888591 0.780251 3.014219
  H 4.186604 -1.037861 3.874997
  H 3.060824 -0.215586 4.956295
  H 4.186600 0.723119 3.974355
  H 2.663194 -0.624684 -3.427081
  H 2.663195 1.134008 -3.327847
 21
 148.962043
  C 0.782852 0.044482 0.347408
  C 2.249110 0.041435 0.401374
  C 3.191898 -0.022177 1.528774
  C 2.517750 -0.099849 2.905191
  C 3.556780 -0.162676 4.018631
  C 3.268886 0.156562 -1.638926
  C 2.447537 0.224779 -2.847849
  H 1.385882 0.211474 -2.612066
  H 4.337794 0.153692 -1.588014
  H 0.364573 -0.012350 1.354560
  H 0.401546 -0.803962 -0.228809
  H 0.401548 0.952363 -0.129703
  H 3.851114 0.856420 1.510103
  H 3.851113 -0.893091 1.411382
  H 1.885455 -0.989067 2.955581
  H 1.885447 0.778054 3.055295
  H 4.190564 -1.039424 3.901889
  H 3.071813 -0.217545 4.990997
  H 4.190564 0.721650 4.001253
  H 2.663460 -0.621529 -3.513655
  H 2.663462 1.140610 -3.414220
 21
 167.387972
  C 0.762772 0.042525 0.382078
  C 2.224590 0.038817 0.447753
  C 3.177186 -0.023969 1.560524
  C 2.513982 -0.102021 2.943697
  C 3.561251 -0.164368 4.048628
  C 3.306729 0.162222 -1.739251
  C 2.466161 0.229407 -2.929901
  H 1.410063 0.214833 -2.671631
  H 4.374365 0.158946 -1.681162
  H 0.335121 -0.014149 1.386433
  H 0.385239 -0.804737 -0.198082
  H 0.385242 0.949676 -0.099085
  H 3.836164 0.854663 1.536406
  H 3.836165 -0.894305 1.437717
  H 1.882336 -0.991124 2.997155
  H 1.882329 0.775421 3.096835
  H 4.194422 -1.040856 3.927080
  H 3.083623 -0.219435 5.024532
  H 4.194419 0.720237 4.026445
  H 2.666385 -0.617112 -3.600865
  H 2.666390 1.146041 -3.501383
 21
 182.049930
  C 0.742383 0.040322 0.421133
  C 2.200660 0.036303 0.492315
  C 3.160553 -0.025809 1.593140
  C 2.509178 -0.104330 2.984625
  C 3.565998 -0.166166 4.080514
  C 3.342841 0.168048 -1.842489
  C 2.486710 0.234400 -3.018342
  H 1.433958 0.218772 -2.741390
  H 4.409592 0.164582 -1.781011
  H 0.306982 -0.016262 1.423893
  H 0.367573 -0.806710 -0.162230
  H 0.367575 0.947604 -0.063239
  H 3.819311 0.853316 1.563166
  H 3.819314 -0.895976 1.464459
  H 1.878081 -0.993760 3.042002
  H 1.878074 0.772995 3.141694
  H 4.198533 -1.042446 3.953637
  H 3.096586 -0.221464 5.060522
  H 4.198525 0.718825 4.053015
  H 2.673765 -0.613002 -3.693785
  H 2.673764 1.152399 -3.594162
 21
 179.072800
  C 0.730149 0.030042 0.616765
  C 2.175825 0.037332 0.497938
  C 3.043706 -0.028800 1.660017
  C 2.465990 -0.110963 3.097115
  C 3.574779 -0.170572 4.143083
  C 3.321690 0.180526 -2.010953
  C 2.582461 0.249370 -3.267562
  H 1.508022 0.234066 -3.070923
  H 4.418846 0.185575 -2.134108
  H 0.303446 -0.027292 1.623735
  H 0.363837 -0.811380 0.032034
  H 0.363418 0.932359 0.131557
  H 3.694291 0.847638 1.585861
  H 3.694632 -0.890882 1.486624
  H 1.840961 -1.003780 3.188140
  H 1.840749 0.765530 3.289198
  H 4.206625 -1.048485 3.983283
  H 3.156567 -0.228012 5.149537
  H 4.206468 0.719920 4.084189
  H 2.811012 -0.608030 -3.909139
  H 2.811290 1.168463 -3.816336
 21
 172.890613
  C 0.588469 0.012301 0.965872
  C 2.045361 0.025048 0.740210
  C 2.942575 -0.041636 1.898770
  C 2.428414 -0.125272 3.343670
  C 3.584232 -0.181938 4.334330
  C 3.536719 0.225083 -2.643641
  C 2.721248 0.274443 -3.856307
  H 1.655684 0.257642 -3.642964
  H 4.602250 0.227076 -2.934884
  H 0.213445 -0.047385 1.991095
  H 0.195062 -0.818739 0.380798
  H 0.196229 0.906447 0.481676
  H 3.600699 0.830738 1.784408
  H 3.601843 -0.894235 1.684998
  H 1.811015 -1.017877 3.462819
  H 1.810249 0.747125 3.564713
  H 4.206993 -1.053880 4.146135
  H 3.213865 -0.241083 5.356817
  H 4.206265 0.706406 4.247667
  H 2.981368 -0.547659 -4.529642
  H 2.972780 1.180016 -4.416486
