 22
 0.000000
  H 1.550641 0.152405 0.431183
  C 2.631361 0.138174 0.395573
  C 3.346151 0.612354 1.575136
  C 2.447094 1.070504 2.715333
  C 3.261921 1.550951 3.910510
  C 3.207647 -0.327338 -0.763370
  C 4.595651 -0.417338 -0.988366
  C 5.177767 -0.882044 -2.146881
  C 4.505519 -1.362273 -3.345613
  H 3.424259 -1.341854 -3.296736
  H 6.259615 -0.898053 -2.185967
  H 4.017439 1.432204 1.288764
  H 4.017743 -0.177401 1.935666
  H 1.802328 0.248215 3.030748
  H 1.802160 1.882285 2.374032
  H 3.894719 0.755430 4.296930
  H 2.603317 1.873209 4.712511
  H 3.894503 2.392794 3.638841
  H 2.542606 -0.644520 -1.552691
  H 5.253731 -0.098108 -0.192699
  H 4.849469 -2.376602 -3.565606
  H 4.850621 -0.781313 -4.205247
 22
 0.559868
  H 1.555655 0.217133 0.403656
  C 2.631110 0.086562 0.406776
  C 3.345299 0.576848 1.584094
  C 2.445952 1.088663 2.703283
  C 3.262434 1.609477 3.886057
  C 3.202784 -0.503088 -0.698675
  C 4.588194 -0.541608 -0.943858
  C 5.172478 -0.919920 -2.128639
  C 4.502385 -1.241011 -3.381584
  H 3.423497 -1.176727 -3.341544
  H 6.254540 -0.979864 -2.147811
  H 4.026290 1.385401 1.279280
  H 4.011026 -0.201858 1.969072
  H 1.795549 0.281328 3.045464
  H 1.804393 1.888718 2.328261
  H 3.876803 0.821251 4.312595
  H 2.601908 1.980288 4.669632
  H 3.914549 2.429324 3.581887
  H 2.536119 -0.897899 -1.453349
  H 5.245866 -0.270059 -0.128251
  H 4.812529 -2.239817 -3.704013
  H 4.876846 -0.587169 -4.170022
 22
 1.557267
  H 1.598332 0.392613 0.323028
  C 2.660935 0.176270 0.370394
  C 3.364204 0.634056 1.567310
  C 2.445584 1.077447 2.704959
  C 3.245471 1.575893 3.903900
  C 3.213624 -0.502831 -0.688721
  C 4.598128 -0.581401 -0.931682
  C 5.169028 -0.968049 -2.119070
  C 4.485951 -1.254359 -3.373057
  H 3.411466 -1.127080 -3.333366
  H 6.246649 -1.052069 -2.144678
  H 4.004537 1.489113 1.290565
  H 4.059061 -0.135341 1.919991
  H 1.824234 0.232982 3.016459
  H 1.778043 1.870530 2.363503
  H 3.896952 0.791464 4.294079
  H 2.574651 1.886731 4.703997
  H 3.861306 2.431398 3.634504
  H 2.543042 -0.900995 -1.436039
  H 5.265005 -0.326559 -0.118478
  H 4.742432 -2.270459 -3.688067
  H 4.892604 -0.623807 -4.163680
 22
 3.524366
  H 1.674628 0.563838 0.259496
  C 2.682643 0.207053 0.347457
  C 3.394376 0.675948 1.535718
  C 2.473302 1.055522 2.700694
  C 3.244157 1.576137 3.906542
  C 3.173539 -0.590693 -0.662059
  C 4.565624 -0.703776 -0.875943
  C 5.142544 -1.059761 -2.070404
  C 4.478552 -1.216110 -3.377083
  H 3.416155 -1.000837 -3.354487
  H 6.237542 -1.164280 -2.075511
  H 3.960686 1.566090 1.262975
  H 4.135802 -0.050584 1.872132
  H 1.895220 0.167787 2.998502
  H 1.739002 1.809013 2.360866
  H 3.940718 0.832246 4.277131
  H 2.559666 1.831930 4.715950
  H 3.806918 2.477807 3.650237
  H 2.518219 -0.941468 -1.415005
  H 5.246407 -0.448780 -0.050179
  H 4.666078 -2.210200 -3.765734
  H 4.946936 -0.546362 -4.108598
 22
 5.884519
  H 1.728605 0.638970 0.175890
  C 2.718174 0.213093 0.326050
  C 3.411450 0.701383 1.514922
  C 2.472285 1.079218 2.670681
  C 3.235367 1.562749 3.885614
  C 3.184778 -0.678135 -0.601084
  C 4.566143 -0.792955 -0.847984
  C 5.146141 -1.073986 -2.055403
  C 4.471612 -1.132759 -3.340385
  H 3.444006 -0.799618 -3.302641
  H 6.221377 -1.203198 -2.076029
  H 3.961503 1.612637 1.236802
  H 4.171641 0.004550 1.848251
  H 1.875094 0.198294 2.948272
  H 1.759782 1.838633 2.352243
  H 3.940105 0.805622 4.227370
  H 2.549983 1.795871 4.699967
  H 3.797189 2.462881 3.653235
  H 2.486228 -1.101722 -1.315989
  H 5.229494 -0.628040 -0.014201
  H 4.551863 -2.145587 -3.748480
  H 5.008911 -0.507426 -4.059614
 22
 12.481370
  H 1.937366 0.693991 0.074106
  C 2.846559 0.163190 0.317944
  C 3.496653 0.629962 1.548638
  C 2.473270 1.120719 2.580619
  C 3.173541 1.615207 3.837432
  C 3.216725 -0.877858 -0.492924
  C 4.603477 -0.921896 -0.796143
  C 5.122465 -1.045932 -2.051171
  C 4.389786 -0.975826 -3.310595
  H 3.334968 -0.765377 -3.189190
  H 6.195333 -1.178795 -2.135219
  H 4.137569 1.487849 1.311601
  H 4.117430 -0.157267 1.985511
  H 1.795841 0.302860 2.838336
  H 1.878907 1.937153 2.157875
  H 3.774372 0.822569 4.286591
  H 2.440332 1.942197 4.573989
  H 3.829116 2.455837 3.612491
  H 2.511144 -1.368907 -1.147187
  H 5.300467 -0.862505 0.026958
  H 4.527351 -1.911970 -3.850003
  H 4.834454 -0.214181 -3.960121
 22
 20.041528
  H 2.069763 0.746160 -0.007793
  C 2.911122 0.119602 0.294547
  C 3.552453 0.599180 1.528978
  C 2.500060 1.150312 2.513502
  C 3.164942 1.602455 3.808538
  C 3.179970 -0.992264 -0.432479
  C 4.575589 -0.921283 -0.747207
  C 5.093908 -0.996530 -2.002336
  C 4.347941 -0.910664 -3.262633
  H 3.287232 -0.746328 -3.129160
  H 6.165767 -1.123987 -2.097890
  H 4.259714 1.397482 1.318310
  H 4.078497 -0.226337 2.013435
  H 1.758637 0.382955 2.732215
  H 1.982299 1.998985 2.066048
  H 3.696136 0.782104 4.281900
  H 2.414720 1.963703 4.506443
  H 3.872540 2.408401 3.623147
  H 2.471402 -1.464039 -1.096711
  H 5.283987 -0.875840 0.067678
  H 4.517831 -1.824922 -3.826986
  H 4.766870 -0.120148 -3.896115
 22
 31.203925
  H 2.342305 0.864277 -0.146003
  C 3.094424 0.160221 0.232021
  C 3.652062 0.585210 1.535512
  C 2.534673 1.194529 2.402344
  C 3.082929 1.591561 3.764212
  C 3.189966 -1.055906 -0.378673
  C 4.600560 -0.941052 -0.684690
  C 5.056354 -1.024231 -1.962344
  C 4.260143 -0.820785 -3.178912
  H 3.243518 -0.504560 -2.978005
  H 6.100943 -1.277095 -2.106766
  H 4.422264 1.352592 1.407065
  H 4.100921 -0.263185 2.055845
  H 1.735907 0.463904 2.536087
  H 2.112469 2.072014 1.912596
  H 3.488608 0.728911 4.287748
  H 2.290854 2.016542 4.377377
  H 3.871104 2.334601 3.664380
  H 2.468026 -1.558054 -1.006510
  H 5.308541 -1.044891 0.130373
  H 4.256476 -1.743402 -3.764122
  H 4.751945 -0.091229 -3.822890
 22
 38.045105
  H 2.849516 0.675007 -0.359441
  C 3.413525 -0.092146 0.171261
  C 3.778661 0.390514 1.563482
  C 2.634611 1.210248 2.161306
  C 2.981367 1.660802 3.576862
  C 3.228581 -1.437353 -0.205274
  C 4.587487 -0.891017 -0.514949
  C 4.942262 -0.812784 -1.869991
  C 4.037838 -0.530423 -2.966470
  H 3.027094 -0.286278 -2.655907
  H 5.975543 -1.006091 -2.130075
  H 4.673484 1.012045 1.519212
  H 3.984772 -0.465697 2.206832
  H 1.723727 0.609943 2.191526
  H 2.441469 2.088803 1.543656
  H 3.163089 0.804399 4.222026
  H 2.160403 2.235424 4.001340
  H 3.871796 2.285898 3.577962
  H 2.531335 -2.024498 -0.761775
  H 5.386361 -1.089932 0.187066
  H 4.021281 -1.379829 -3.655353
  H 4.455579 0.279550 -3.573184
 22
 37.905926
  H 2.726224 0.653643 -0.330456
  C 3.347225 -0.088504 0.177931
  C 3.747954 0.404694 1.552291
  C 2.607453 1.202522 2.185362
  C 2.996182 1.669885 3.583261
  C 3.234380 -1.427724 -0.229921
  C 4.577219 -0.865291 -0.532498
  C 4.948189 -0.780058 -1.878705
  C 4.047195 -0.557215 -2.994678
  H 3.019854 -0.367892 -2.701230
  H 5.995351 -0.915724 -2.119112
  H 4.625319 1.047762 1.478830
  H 3.994196 -0.441860 2.192393
  H 1.713268 0.581395 2.250559
  H 2.372561 2.072227 1.572022
  H 3.221319 0.820782 4.227435
  H 2.178616 2.228539 4.034645
  H 3.873218 2.317311 3.547185
  H 2.556297 -2.025978 -0.795627
  H 5.369689 -1.003828 0.193664
  H 4.089128 -1.412500 -3.677369
  H 4.427163 0.272831 -3.599976
