 20
 0.000000
  C 0.966881 0.140951 0.402175
  C 2.445261 0.138532 0.395784
  H 3.014192 0.476454 1.236632
  C 3.056527 -0.326240 -0.761266
  C 4.434557 -0.412807 -0.977341
  C 5.116634 -0.862171 -2.097644
  C 4.626711 -1.386353 -3.404443
  C 3.136043 -1.505154 -3.701248
  H 2.979055 -1.899161 -4.683599
  O 6.441363 -0.854110 -2.077903
  H 0.534203 0.511600 1.324625
  H 0.594015 -0.871193 0.237377
  H 0.593750 0.757524 -0.417125
  H 2.395882 -0.642369 -1.548407
  H 5.050449 -0.080233 -0.149165
  H 5.083529 -2.374996 -3.529298
  H 5.083826 -0.758265 -4.177923
  H 2.660333 -0.524837 -3.647836
  H 2.660040 -2.176678 -2.985238
  H 6.799446 -0.516763 -1.236311
 20
 0.000000
  C 1.036767 0.109003 0.322551
  C 2.514622 0.124107 0.359816
  H 3.054435 0.468597 1.217044
  C 3.165255 -0.333180 -0.778606
  C 4.450080 -0.409436 -0.968956
  C 5.077306 -0.848165 -2.062736
  C 4.581384 -1.371566 -3.367584
  C 3.089366 -1.487999 -3.658486
  H 2.927865 -1.881755 -4.640206
  O 6.304506 -0.833056 -2.025397
  H 0.572676 0.474332 1.231764
  H 0.680950 -0.907459 0.146984
  H 0.680708 0.721259 -0.507515
  H 2.561938 -0.656858 -1.584581
  H 5.073166 -0.078729 -0.145427
  H 5.036134 -2.360933 -3.494241
  H 5.036430 -0.744203 -4.142870
  H 2.615428 -0.506928 -3.603196
  H 2.615135 -2.158768 -2.940595
  H 6.598546 -0.484534 -1.155917
 20
 0.000000
  C 1.107678 0.076894 0.242524
  C 2.583411 0.110139 0.324988
  H 3.092472 0.461067 1.198273
  C 3.274141 -0.338904 -0.792916
  C 4.464444 -0.405548 -0.959279
  C 5.040062 -0.834776 -2.029369
  C 4.537473 -1.357297 -3.332017
  C 3.043985 -1.471093 -3.616344
  H 2.877467 -1.864560 -4.597342
  O 6.168005 -0.813923 -1.977681
  H 0.611531 0.436321 1.137050
  H 0.769908 -0.943828 0.056334
  H 0.769690 0.684891 -0.598161
  H 2.728266 -0.670714 -1.619176
  H 5.095150 -0.076852 -0.140760
  H 4.989912 -2.347465 -3.460671
  H 4.990209 -0.730737 -4.109303
  H 2.572029 -0.489187 -3.558973
  H 2.571736 -2.141025 -2.896368
  H 6.392738 -0.453133 -1.077585
 20
 0.000000
  C 1.179203 0.044892 0.162764
  C 2.651033 0.096938 0.292075
  H 3.127572 0.454149 1.181030
  C 3.382612 -0.343026 -0.803233
  C 4.477797 -0.400823 -0.947519
  C 5.005462 -0.822322 -1.998333
  C 4.495409 -1.343842 -3.298479
  C 3.000312 -1.454678 -3.575425
  H 2.828171 -1.847811 -4.555586
  O 6.032934 -0.797077 -1.935668
  H 0.650335 0.397776 1.041006
  H 0.860565 -0.980018 -0.033868
  H 0.860371 0.648704 -0.688359
  H 2.894957 -0.683775 -1.651788
  H 5.116619 -0.074312 -0.134437
  H 4.945245 -2.334905 -3.429360
  H 4.945541 -0.718178 -4.077996
  H 2.530592 -0.471838 -3.515729
  H 2.530299 -2.123675 -2.853120
  H 6.180850 -0.423017 -1.002455
 20
 0.000000
  C 1.250701 0.013387 0.084244
  C 2.716637 0.084933 0.262140
  H 3.158743 0.448237 1.166294
  C 3.489811 -0.345038 -0.808292
  C 4.490385 -0.394830 -0.932594
  C 4.974203 -0.811230 -1.970692
  C 4.455765 -1.331605 -3.267977
  C 2.958906 -1.439104 -3.536602
  H 2.780439 -1.831847 -4.515787
  O 5.900745 -0.782955 -1.900446
  H 0.688443 0.359025 0.944447
  H 0.952366 -1.015617 -0.122601
  H 0.952198 0.613107 -0.777087
  H 3.062049 -0.695743 -1.681671
  H 5.137904 -0.070705 -0.125457
  H 4.902653 -2.323668 -3.401350
  H 4.902948 -0.706943 -4.049990
  H 2.491719 -0.455219 -3.474301
  H 2.491426 -2.107054 -2.811688
  H 5.961571 -0.394942 -0.932410
 20
 0.000000
  C 1.321167 -0.017026 0.008442
  C 2.778989 0.074725 0.236687
  H 3.184644 0.443885 1.155448
  C 3.594431 -0.344262 -0.806397
  C 4.502575 -0.386975 -0.913030
  C 4.947163 -0.802085 -1.947904
  C 4.419331 -1.321152 -3.241921
  C 2.920559 -1.424899 -3.501191
  H 2.734997 -1.817188 -4.479239
  O 5.773432 -0.772093 -1.873353
  H 0.724901 0.320600 0.848703
  H 1.044376 -1.050006 -0.208317
  H 1.044236 0.578720 -0.862797
  H 3.229344 -0.706123 -1.707595
  H 5.159466 -0.065480 -0.112441
  H 4.862891 -2.314330 -3.378074
  H 4.863185 -0.697607 -4.026718
  H 2.456236 -0.439847 -3.435984
  H 2.455944 -2.091681 -2.773366
  H 5.733586 -0.370099 -0.870421
 20
 0.000000
  C 1.388980 -0.045395 -0.062264
  C 2.836253 0.067202 0.217929
  H 3.203469 0.441903 1.150518
  C 3.694394 -0.339770 -0.795239
  C 4.514883 -0.376458 -0.886826
  C 4.925478 -0.795719 -1.932042
  C 4.387279 -1.313310 -3.222375
  C 2.886469 -1.412901 -3.471280
  H 2.693065 -1.804667 -4.448017
  O 5.653842 -0.765192 -1.856134
  H 0.758271 0.283423 0.756065
  H 1.134962 -1.082183 -0.288525
  H 1.134851 0.546546 -0.942998
  H 3.395979 -0.714177 -1.727718
  H 5.181928 -0.057878 -0.093500
  H 4.827133 -2.307713 -3.361579
  H 4.827425 -0.690992 -4.010228
  H 2.425340 -0.426567 -3.402875
  H 2.425049 -2.078398 -2.740253
  H 5.495892 -0.350287 -0.820977
 20
 0.000000
  C 1.449950 -0.069531 -0.122420
  C 2.884512 0.063767 0.209360
  H 3.212702 0.443460 1.154404
  C 3.784122 -0.330575 -0.772354
  C 4.527726 -0.362605 -0.852305
  C 4.911105 -0.793439 -1.926366
  C 4.362146 -1.309464 -3.212788
  C 2.859303 -1.404723 -3.450888
  H 2.657748 -1.795920 -4.426205
  O 5.548891 -0.763282 -1.851356
  H 0.785700 0.249982 0.672737
  H 1.219107 -1.109802 -0.357369
  H 1.219025 0.518929 -1.011835
  H 3.555497 -0.718958 -1.739674
  H 5.205556 -0.047201 -0.066889
  H 4.798117 -2.305131 -3.355141
  H 4.798406 -0.688411 -4.003795
  H 2.401525 -0.417063 -3.379180
  H 2.401236 -2.068892 -2.716553
  H 5.254583 -0.338281 -0.791001
 20
 0.000000
  C 1.493630 -0.084985 -0.160934
  C 2.915949 0.065437 0.213520
  H 3.211194 0.448865 1.167882
  C 3.849142 -0.317915 -0.740824
  C 4.540122 -0.347306 -0.814177
  C 4.906689 -0.796352 -1.933632
  C 4.348886 -1.311063 -3.216772
  C 2.844435 -1.402746 -3.445956
  H 2.636170 -1.793458 -4.420057
  O 5.475702 -0.766838 -1.860205
  H 0.802144 0.226399 0.613978
  H 1.282391 -1.127905 -0.402493
  H 1.282334 0.500828 -1.056954
  H 3.682488 -0.720596 -1.743776
  H 5.227821 -0.034882 -0.036184
  H 4.781636 -2.307763 -3.361699
  H 4.781924 -0.691046 -4.010357
  H 2.389441 -0.414000 -3.371544
  H 2.389151 -2.065827 -2.708912
  H 5.045917 -0.336156 -0.785670
 20
 0.000000
  C 1.520958 -0.092174 -0.178851
  C 2.932465 0.071780 0.229326
  H 3.201244 0.457899 1.190403
  C 3.891724 -0.302534 -0.702501
  C 4.552253 -0.331027 -0.773601
  C 4.910598 -0.803872 -1.952381
  C 4.346489 -1.317632 -3.233144
  C 2.840927 -1.406758 -3.455951
  H 2.627873 -1.797114 -4.429160
  O 5.430345 -0.774753 -1.879927
  H 0.808284 0.212503 0.579354
  H 1.325495 -1.137037 -0.425255
  H 1.325458 0.491698 -1.079712
  H 3.778883 -0.720952 -1.744668
  H 5.248981 -0.021392 -0.002556
  H 4.776927 -2.315066 -3.379897
  H 4.777215 -0.698350 -4.028559
  H 2.387933 -0.417240 -3.379617
  H 2.387644 -2.069066 -2.716981
  H 4.865888 -0.341828 -0.799789
 20
 0.000000
  C 1.532286 -0.091214 -0.176455
  C 2.935319 0.082546 0.256159
  H 3.184673 0.470469 1.221736
  C 3.913199 -0.285017 -0.658851
  C 4.563819 -0.314288 -0.731878
  C 4.921892 -0.815559 -1.981516
  C 4.354629 -1.328840 -3.261078
  C 2.848521 -1.416685 -3.480689
  H 2.633071 -1.806860 -4.453442
  O 5.410090 -0.786252 -1.908584
  H 0.804448 0.208443 0.569244
  H 1.348416 -1.137399 -0.426155
  H 1.348393 0.491337 -1.080610
  H 3.845221 -0.722349 -1.748137
  H 5.268807 -0.007259 0.032674
  H 4.783905 -2.326640 -3.408742
  H 4.784192 -0.709926 -4.057408
  H 2.396533 -0.426782 -3.403396
  H 2.396244 -2.078606 -2.740757
  H 4.709868 -0.353142 -0.827979
 20
 0.000000
  C 1.527706 -0.082214 -0.154021
  C 2.925443 0.097374 0.293115
  H 3.163154 0.486311 1.261218
  C 3.914280 -0.266096 -0.611698
  C 4.573928 -0.297881 -0.690983
  C 4.939865 -0.830857 -2.019650
  C 4.373258 -1.344241 -3.299460
  C 2.867263 -1.432353 -3.519736
  H 2.652311 -1.822568 -4.492583
  O 5.412797 -0.800543 -1.944205
  H 0.790934 0.214395 0.584085
  H 1.350791 -1.129149 -0.405592
  H 1.350776 0.499587 -1.060047
  H 3.880750 -0.727409 -1.760722
  H 5.286348 0.006759 0.067613
  H 4.802776 -2.341965 -3.446933
  H 4.803063 -0.725252 -4.095602
  H 2.415065 -0.442530 -3.442644
  H 2.414777 -2.094353 -2.780002
  H 4.573417 -0.367900 -0.864758
 20
 0.000000
  C 1.508597 -0.066418 -0.114648
  C 2.904577 0.115058 0.337188
  H 3.138504 0.504314 1.306084
  C 3.896943 -0.247075 -0.564292
  C 4.580973 -0.283012 -0.653921
  C 4.962867 -0.848494 -2.063615
  C 4.401226 -1.362638 -3.345308
  C 2.896095 -1.452769 -3.570612
  H 2.684917 -1.843272 -4.544170
  O 5.434322 -0.816258 -1.983379
  H 0.768945 0.229194 0.620974
  H 1.333943 -1.113590 -0.366810
  H 1.333930 0.515145 -1.021266
  H 3.885929 -0.738084 -1.787285
  H 5.299671 0.019578 0.099557
  H 4.832572 -2.359785 -3.491341
  H 4.832857 -0.743073 -4.140013
  H 2.442315 -0.463554 -3.495036
  H 2.442029 -2.115375 -2.832391
  H 4.452524 -0.383980 -0.904831
 20
 0.000000
  C 1.478280 -0.046676 -0.065446
  C 2.875321 0.133666 0.383559
  H 3.111528 0.522732 1.351979
  C 3.865563 -0.229274 -0.519930
  C 4.583131 -0.270521 -0.622790
  C 4.987937 -0.866680 -2.108947
  C 4.435589 -1.382222 -3.394112
  C 2.932123 -1.476120 -3.628797
  H 2.727998 -1.867146 -4.603649
  O 5.466957 -0.831681 -2.021828
  H 0.740362 0.249537 0.671674
  H 1.302265 -1.093707 -0.317251
  H 1.302249 0.535028 -0.971709
  H 3.865936 -0.754241 -1.827501
  H 5.306569 0.030501 0.126772
  H 4.870332 -2.378286 -3.537441
  H 4.870615 -0.761575 -4.186116
  H 2.475405 -0.488044 -3.556063
  H 2.475121 -2.139864 -2.893415
  H 4.341114 -0.400397 -0.945741
