18

H -2.435698364715071 0.6896932001219653 -0.06157761234198558
C -2.02721 0.567891 -0.018718
C -1.649411 -0.494841 0.671104
C -0.239258 -0.971209 0.842528
C 0.789996 -0.086588 0.148259
C 2.211685 -0.614457 0.327763
C 3.241171 0.244574 -0.416509
H -1.284895 1.181418 -0.504811
H -2.397613 -1.109095 1.158957
H -0.01177 -1.033415 1.911945
H -0.174474 -1.988478 0.441414
H 0.540001 -0.043553 -0.915101
H 0.729145 0.924139 0.55749
H 2.442764 -0.618327 1.396171
H 2.258386 -1.649481 -0.016682
H 3.961159 0.685002 0.269209
H 3.79031 -0.345187 -1.147006
H 2.752324 1.057867 -0.950809
