 18
 0.000000
  C 0.903486 0.052572 0.203966
  C 2.402238 0.058719 0.094977
  C 3.256602 -0.011849 1.345669
  C 2.526569 -0.087183 2.680698
  H 3.250944 -0.132793 3.489019
  C 3.008690 0.125252 -1.084096
  C 2.359498 0.201151 -2.429165
  H 1.273708 0.199249 -2.395449
  H 4.091024 0.127461 -1.123220
  H 0.566923 -0.005497 1.233039
  H 0.487534 -0.803669 -0.325157
  H 0.487534 0.962911 -0.225476
  H 3.907538 0.867201 1.362714
  H 3.907546 -0.887238 1.263715
  H 1.901082 -0.975526 2.735693
  H 1.901051 0.789357 2.835282
  H 2.687542 -0.643150 -3.039576
  H 2.687551 1.108786 -2.940743
 18
 7.003804
  C 0.919845 0.053494 0.187663
  C 2.418069 0.060449 0.064367
  C 3.283302 -0.009456 1.303299
  C 2.488012 -0.093008 2.783957
  H 3.221547 -0.138041 3.582072
  C 3.014719 0.127319 -1.120700
  C 2.353554 0.202822 -2.458760
  H 1.269359 0.200138 -2.411165
  H 4.097086 0.130041 -1.168908
  H 0.594326 -0.004757 1.219963
  H 0.499206 -0.802718 -0.338279
  H 0.499208 0.963442 -0.238619
  H 3.931653 0.868654 1.319541
  H 3.931658 -0.883817 1.220654
  H 1.866224 -0.981117 2.840186
  H 1.866206 0.783145 2.939737
  H 2.674704 -0.641074 -3.072255
  H 2.674708 1.110388 -2.973438
 18
 23.258313
  C 0.944082 0.054244 0.172863
  C 2.442580 0.050974 0.035116
  C 3.313122 0.002893 1.257635
  C 2.441539 -0.100689 2.891090
  H 3.196186 -0.141076 3.663914
  C 3.018999 0.132923 -1.153720
  C 2.364173 0.207731 -2.491378
  H 1.271518 0.197532 -2.415601
  H 4.101012 0.128094 -1.214527
  H 0.626722 -0.003913 1.209978
  H 0.507670 -0.799778 -0.347828
  H 0.514322 0.964221 -0.247208
  H 3.958312 0.877624 1.280560
  H 3.947625 -0.887643 1.204156
  H 1.834812 -0.990027 2.921428
  H 1.826704 0.779165 3.026694
  H 2.642497 -0.645002 -3.108534
  H 2.644464 1.118278 -2.999086
 18
 39.265398
  C 0.963814 0.050104 0.161901
  C 2.458787 0.047958 0.004544
  C 3.352465 -0.001735 1.208614
  C 2.390877 -0.101398 2.975060
  H 3.174355 -0.135229 3.716309
  C 3.027461 0.130965 -1.174875
  C 2.340014 0.210125 -2.499118
  H 1.257283 0.201711 -2.392864
  H 4.108125 0.124910 -1.239455
  H 0.679743 -0.009768 1.201910
  H 0.522391 -0.801445 -0.354547
  H 0.533914 0.961252 -0.251853
  H 3.978429 0.882164 1.278709
  H 3.973392 -0.895118 1.200579
  H 1.792783 -0.999561 2.953329
  H 1.789002 0.790305 3.050822
  H 2.616687 -0.641953 -3.121340
  H 2.620833 1.130724 -3.016824
 18
 54.639180
  C 0.971140 0.047916 0.158445
  C 2.467589 0.048826 -0.021031
  C 3.376622 -0.008658 1.168263
  C 2.342382 -0.102683 3.077073
  H 3.176286 -0.133585 3.758004
  C 3.034394 0.133653 -1.214721
  C 2.326487 0.213037 -2.531218
  H 1.247417 0.204638 -2.410989
  H 4.114499 0.130631 -1.283774
  H 0.714762 -0.016604 1.202716
  H 0.524261 -0.800700 -0.358449
  H 0.537252 0.960842 -0.247949
  H 3.982330 0.882524 1.307418
  H 3.984220 -0.907089 1.224293
  H 1.770054 -1.011382 3.009128
  H 1.769258 0.806351 3.099443
  H 2.611638 -0.633406 -3.159463
  H 2.610989 1.130422 -3.052983
 18
 69.739672
  C 0.991951 0.049418 0.145467
  C 2.483175 0.052693 -0.049262
  C 3.397123 -0.005576 1.126500
  C 2.303152 -0.108233 3.183837
  H 3.147446 -0.140055 3.847816
  C 3.038853 0.136534 -1.252214
  C 2.320200 0.213938 -2.560554
  H 1.240342 0.204495 -2.430965
  H 4.118802 0.135539 -1.332315
  H 0.745072 -0.015970 1.197913
  H 0.541690 -0.799216 -0.367379
  H 0.552966 0.961050 -0.256531
  H 3.996649 0.883783 1.273429
  H 3.998590 -0.907498 1.188324
  H 1.734000 -1.017978 3.113559
  H 1.734169 0.803913 3.205561
  H 2.600769 -0.630315 -3.189882
  H 2.599681 1.129826 -3.085718
 18
 82.899138
  C 1.011034 0.050225 0.135746
  C 2.501964 0.055593 -0.078418
  C 3.423267 -0.003295 1.087162
  C 2.259711 -0.113581 3.287757
  H 3.117505 -0.146003 3.934287
  C 3.044129 0.138765 -1.286853
  C 2.310270 0.215414 -2.588017
  H 1.232429 0.205519 -2.446625
  H 4.122776 0.139098 -1.378417
  H 0.780925 -0.015577 1.190163
  H 0.554698 -0.799238 -0.371486
  H 0.565132 0.961844 -0.260306
  H 4.017467 0.888289 1.250423
  H 4.016633 -0.908939 1.163013
  H 1.696548 -1.024296 3.204863
  H 1.698208 0.801660 3.298116
  H 2.585839 -0.629022 -3.221247
  H 2.584090 1.130059 -3.116452
 18
 93.717087
  C 1.034680 0.050628 0.127650
  C 2.522236 0.058199 -0.107505
  C 3.450420 -0.001058 1.048589
  C 2.213170 -0.118504 3.390283
  H 3.082374 -0.151202 4.019712
  C 3.049163 0.140971 -1.322522
  C 2.298626 0.216837 -2.613469
  H 1.221947 0.206156 -2.457916
  H 4.126356 0.142706 -1.427562
  H 0.822090 -0.015761 1.187622
  H 0.572389 -0.799080 -0.372876
  H 0.581963 0.961345 -0.261481
  H 4.036831 0.890712 1.228696
  H 4.035230 -0.910916 1.140134
  H 1.655658 -1.030952 3.292785
  H 1.658448 0.800867 3.386935
  H 2.567307 -0.626636 -3.249861
  H 2.565651 1.131250 -3.145842
 18
 102.284539
  C 1.058149 0.050765 0.121795
  C 2.543472 0.060461 -0.135383
  C 3.478010 0.000828 1.010992
  C 2.165210 -0.123493 3.492820
  H 3.044924 -0.156489 4.106450
  C 3.054399 0.143075 -1.357211
  C 2.286248 0.218448 -2.638225
  H 1.211992 0.207049 -2.468265
  H 4.130006 0.146129 -1.476286
  H 0.863728 -0.016133 1.185058
  H 0.589319 -0.799693 -0.371790
  H 0.598145 0.961223 -0.260006
  H 4.057075 0.893739 1.207535
  H 4.053396 -0.912439 1.117843
  H 1.613529 -1.036252 3.380731
  H 1.617671 0.798562 3.475532
  H 2.547452 -0.624812 -3.278585
  H 2.545702 1.132385 -3.174017
 18
 108.876954
  C 1.083114 0.050633 0.116984
  C 2.565009 0.062511 -0.162584
  C 3.505929 0.002533 0.974358
  C 2.115699 -0.128291 3.595341
  H 3.004382 -0.161528 4.194509
  C 3.059017 0.145181 -1.391501
  C 2.272773 0.220024 -2.661152
  H 1.200845 0.207701 -2.475908
  H 4.132730 0.149644 -1.525415
  H 0.906476 -0.016893 1.184477
  H 0.608064 -0.800259 -0.369386
  H 0.616140 0.960469 -0.257129
  H 4.077076 0.895873 1.186226
  H 4.071886 -0.914098 1.095996
  H 1.569030 -1.041748 3.469049
  H 1.574505 0.796815 3.564336
  H 2.525757 -0.622609 -3.305174
  H 2.524060 1.133926 -3.200455
 18
 113.802986
  C 1.107674 0.050250 0.113426
  C 2.586321 0.064320 -0.188574
  C 3.533743 0.003934 0.939085
  C 2.065133 -0.133055 3.698731
  H 2.961726 -0.166608 4.284798
  C 3.063006 0.147237 -1.424464
  C 2.258472 0.221662 -2.682744
  H 1.189473 0.208372 -2.482267
  H 4.134700 0.153127 -1.573349
  H 0.948400 -0.017925 1.183855
  H 0.626441 -0.801269 -0.365842
  H 0.633800 0.959764 -0.252915
  H 4.097372 0.897969 1.165195
  H 4.090121 -0.915631 1.074562
  H 1.523277 -1.046270 3.559205
  H 1.530258 0.794101 3.654792
  H 2.503053 -0.620598 -3.330669
  H 2.501280 1.135599 -3.225280
 18
 117.381907
  C 1.132005 0.049590 0.110789
  C 2.606829 0.065917 -0.213320
  C 3.560994 0.005096 0.905153
  C 2.013599 -0.137688 3.803258
  H 2.917131 -0.171603 4.377459
  C 3.065952 0.149277 -1.456011
  C 2.243378 0.223299 -2.702333
  H 1.177396 0.208915 -2.486594
  H 4.135379 0.156662 -1.619921
  H 0.989325 -0.019346 1.184178
  H 0.644992 -0.802393 -0.361491
  H 0.651614 0.958656 -0.247722
  H 4.117225 0.899505 1.144181
  H 4.107981 -0.917242 1.053502
  H 1.475739 -1.050912 3.651514
  H 1.484344 0.791687 3.747310
  H 2.479436 -0.618384 -3.353962
  H 2.477529 1.137438 -3.247909
 18
 119.905718
  C 1.155073 0.048621 0.109262
  C 2.625986 0.067259 -0.236345
  C 3.587130 0.005933 0.873137
  C 1.961179 -0.142251 3.909835
  H 2.870834 -0.176626 4.473230
  C 3.067686 0.151252 -1.485469
  C 2.227507 0.224968 -2.720005
  H 1.164811 0.209421 -2.489446
  H 4.134758 0.160170 -1.664071
  H 1.028170 -0.021157 1.184821
  H 0.662575 -0.803875 -0.356336
  H 0.668447 0.957394 -0.241495
  H 4.136474 0.900755 1.123885
  H 4.124897 -0.918930 1.033344
  H 1.426961 -1.054865 3.747151
  H 1.437361 0.788681 3.843008
  H 2.455201 -0.616182 -3.375330
  H 2.453050 1.139456 -3.268342
 18
 121.598694
  C 1.176635 0.047299 0.109256
  C 2.643247 0.068329 -0.257194
  C 3.611455 0.006436 0.843440
  C 1.907655 -0.146697 4.019127
  H 2.822860 -0.181631 4.572652
  C 3.067810 0.153159 -1.512371
  C 2.210733 0.226638 -2.735024
  H 1.151392 0.209836 -2.490073
  H 4.132363 0.163663 -1.705269
  H 1.064760 -0.023456 1.186768
  H 0.679027 -0.805618 -0.349908
  H 0.684125 0.955760 -0.233756
  H 4.154328 0.901475 1.104717
  H 4.140246 -0.920803 1.014596
  H 1.376306 -1.058884 3.846684
  H 1.388711 0.785913 3.942529
  H 2.430271 -0.613833 -3.393882
  H 2.427764 1.141550 -3.285789
