 17
 0.000000
  C 0.996384 0.132972 0.381868
  C 2.475139 0.140018 0.399085
  H 3.027530 0.481638 1.249414
  C 3.096863 -0.322475 -0.752613
  C 4.472906 -0.413204 -0.978851
  C 5.132414 -0.867699 -2.111643
  C 4.618673 -1.388937 -3.410716
  H 3.569972 -1.467842 -3.607948
  O 6.457488 -0.870547 -2.119086
  H 0.547238 0.500715 1.297563
  H 0.632250 -0.881396 0.212641
  H 0.631990 0.748397 -0.441931
  H 2.436796 -0.639606 -1.542199
  H 5.100515 -0.083792 -0.158214
  H 5.068655 -2.379864 -3.541239
  H 5.069011 -0.763340 -4.190016
  H 6.834017 -0.535875 -1.285013
 17
 0.000000
  C 1.053062 0.115825 0.339140
  C 2.561941 0.122698 0.355932
  H 3.114840 0.464203 1.205977
  C 3.145805 -0.326624 -0.762961
  C 4.455568 -0.415992 -0.985798
  C 5.080596 -0.856257 -2.083130
  C 4.580171 -1.379290 -3.386673
  H 3.533534 -1.461905 -3.593138
  O 6.342820 -0.845745 -2.057281
  H 0.604464 0.483663 1.255066
  H 0.688628 -0.898467 0.170101
  H 0.688373 0.731326 -0.484472
  H 2.477513 -0.641353 -1.546568
  H 5.089817 -0.088347 -0.169570
  H 5.034793 -2.368615 -3.513212
  H 5.035141 -0.752089 -4.161984
  H 6.680775 -0.493867 -1.180329
 17
 0.000000
  C 1.106784 0.099020 0.297265
  C 2.649330 0.105998 0.314326
  H 3.202298 0.447487 1.164333
  C 3.197293 -0.330523 -0.772684
  C 4.440478 -0.418895 -0.993035
  C 5.031806 -0.845462 -2.056231
  C 4.544033 -1.370152 -3.363899
  H 3.499438 -1.456274 -3.579089
  O 6.230675 -0.823046 -2.000718
  H 0.658260 0.466873 1.213221
  H 0.742307 -0.915260 0.128252
  H 0.742059 0.714532 -0.526322
  H 2.520260 -0.642646 -1.549806
  H 5.082250 -0.093287 -0.181885
  H 5.003011 -2.357945 -3.486627
  H 5.003351 -0.741417 -4.135395
  H 6.526588 -0.452259 -1.076641
 17
 0.000000
  C 1.157338 0.082550 0.256224
  C 2.737292 0.089922 0.274275
  H 3.289900 0.431491 1.124484
  C 3.251297 -0.334197 -0.781846
  C 4.427942 -0.421806 -1.000290
  C 4.986314 -0.835256 -2.030799
  C 4.510234 -1.361435 -3.342174
  H 3.467595 -1.450784 -3.565389
  O 6.121557 -0.802491 -1.949494
  H 0.708426 0.450339 1.172015
  H 0.793068 -0.931783 0.087077
  H 0.792826 0.698009 -0.567498
  H 2.565080 -0.643521 -1.552004
  H 5.078100 -0.098512 -0.194911
  H 4.973195 -2.347803 -3.461358
  H 4.973525 -0.731274 -4.110122
  H 6.371129 -0.411399 -0.974815
 17
 0.000000
  C 1.203526 0.066571 0.216407
  C 2.825933 0.074685 0.236315
  H 3.377706 0.416440 1.086991
  C 3.308071 -0.337615 -0.790373
  C 4.418521 -0.424693 -1.007486
  C 4.944726 -0.825810 -2.007262
  C 4.478994 -1.353274 -3.321834
  H 3.438141 -1.445466 -3.552119
  O 6.016411 -0.784325 -1.904224
  H 0.753716 0.434209 1.131818
  H 0.839740 -0.947884 0.046953
  H 0.839506 0.681908 -0.607623
  H 2.612183 -0.643924 -1.553025
  H 5.078071 -0.104046 -0.208708
  H 4.945444 -2.338373 -3.437866
  H 4.945764 -0.721843 -4.086626
  H 6.214643 -0.371263 -0.874793
 17
 0.000000
  C 1.243962 0.051192 0.178085
  C 2.915943 0.060470 0.200902
  H 3.466355 0.402529 1.052338
  C 3.368275 -0.340754 -0.798204
  C 4.412898 -0.427538 -1.014578
  C 4.907562 -0.817288 -1.986028
  C 4.450392 -1.345791 -3.303185
  H 3.411055 -1.440329 -3.539296
  O 5.915746 -0.768738 -1.865381
  H 0.792687 0.418583 1.092874
  H 0.880966 -0.963462 0.008129
  H 0.880740 0.666329 -0.646447
  H 2.662108 -0.643779 -1.552681
  H 5.083079 -0.109960 -0.223454
  H 4.919704 -2.329836 -3.416597
  H 4.920013 -0.713304 -4.065354
  H 6.056462 -0.331563 -0.775859
 17
 0.000000
  C 1.276920 0.036736 0.142063
  C 3.006183 0.047643 0.168949
  H 3.554712 0.390120 1.021432
  C 3.431211 -0.343557 -0.805197
  C 4.411726 -0.430246 -1.021328
  C 4.875896 -0.809917 -1.967662
  C 4.424961 -1.339165 -3.286669
  H 3.386751 -1.435407 -3.527011
  O 5.821849 -0.756062 -1.833792
  H 0.823625 0.403784 1.055992
  H 0.915020 -0.978193 -0.028583
  H 0.914803 0.651598 -0.683159
  H 2.714297 -0.643056 -1.550901
  H 5.093713 -0.116169 -0.238934
  H 4.896347 -2.322437 -3.398166
  H 4.896644 -0.705904 -4.046921
  H 5.898750 -0.292952 -0.679638
 17
 0.000000
  C 1.300806 0.023346 0.108695
  C 3.096956 0.036436 0.141033
  H 3.643049 0.379452 0.994862
  C 3.497164 -0.345984 -0.811252
  C 4.415607 -0.432779 -1.027643
  C 4.850223 -0.803858 -1.952565
  C 4.402756 -1.333516 -3.272588
  H 3.365180 -1.430708 -3.515277
  O 5.735413 -0.746404 -1.809720
  H 0.844902 0.389946 1.021505
  H 0.940325 -0.991939 -0.062840
  H 0.940116 0.637852 -0.717417
  H 2.768972 -0.641681 -1.547492
  H 5.110718 -0.122714 -0.255252
  H 4.875292 -2.316356 -3.383020
  H 4.875577 -0.699823 -4.031773
  H 5.741141 -0.255270 -0.585734
 17
 0.000000
  C 1.313493 0.011301 0.078680
  C 3.187901 0.027222 0.118082
  H 3.730996 0.370897 0.973557
  C 3.565930 -0.347952 -0.816162
  C 4.425155 -0.435086 -1.033394
  C 4.831221 -0.799354 -1.941343
  C 4.383928 -1.329035 -3.261418
  H 3.346383 -1.426281 -3.504221
  O 5.657749 -0.739956 -1.793652
  H 0.854390 0.377348 0.990108
  H 0.954758 -1.004418 -0.093943
  H 0.954560 0.625373 -0.748519
  H 2.825934 -0.639551 -1.542205
  H 5.134774 -0.129608 -0.272439
  H 4.856528 -2.311850 -3.371798
  H 4.856799 -0.695316 -4.020550
  H 5.584311 -0.218579 -0.494301
 17
 0.000000
  C 1.312996 0.000888 0.052731
  C 3.278391 0.020370 0.101018
  H 3.817957 0.364814 0.958415
  C 3.636978 -0.349356 -0.819667
  C 4.440714 -0.437098 -1.038409
  C 4.819245 -0.796593 -1.934468
  C 4.368383 -1.325857 -3.253496
  H 3.330183 -1.422141 -3.493879
  O 5.589869 -0.736800 -1.785784
  H 0.850140 0.366280 0.962523
  H 0.956319 -1.015339 -0.121163
  H 0.956130 0.614453 -0.775738
  H 2.884693 -0.636555 -1.534757
  H 5.166210 -0.136833 -0.290451
  H 4.839813 -2.309110 -3.364979
  H 4.840070 -0.692576 -4.013730
  H 5.428924 -0.182987 -0.405608
 17
 0.000000
  C 1.297104 -0.007601 0.031575
  C 3.367617 0.016281 0.090838
  H 3.903144 0.361598 0.950414
  C 3.709607 -0.350062 -0.821430
  C 4.462561 -0.438744 -1.042513
  C 4.814558 -0.795761 -1.932399
  C 4.356017 -1.324113 -3.249146
  H 3.316431 -1.418313 -3.484313
  O 5.532728 -0.736960 -1.786179
  H 0.829972 0.357035 0.939482
  H 0.942783 -1.024405 -0.143761
  H 0.942604 0.605388 -0.798335
  H 2.944636 -0.632567 -1.524838
  H 5.205208 -0.144350 -0.309192
  H 4.824908 -2.308309 -3.362990
  H 4.825151 -0.691775 -4.011741
  H 5.276027 -0.148530 -0.319746
 17
 0.000000
  C 1.262495 -0.013501 0.016872
  C 3.454893 0.015589 0.089121
  H 3.986097 0.361829 0.951005
  C 3.783160 -0.349865 -0.820945
  C 4.491387 -0.440067 -1.045812
  C 4.817581 -0.797332 -1.936320
  C 4.346411 -1.324144 -3.249222
  H 3.304608 -1.414897 -3.475777
  O 5.487725 -0.740812 -1.795775
  H 0.790809 0.350322 0.922748
  H 0.910697 -1.030915 -0.159994
  H 0.910529 0.598878 -0.814566
  H 3.005032 -0.627334 -1.511813
  H 5.252544 -0.152305 -0.329025
  H 4.811083 -2.309887 -3.366930
  H 4.811311 -0.693353 -4.015683
  H 5.128265 -0.115148 -0.236563
 17
 0.000000
  C 1.241534 -0.014650 0.014006
  C 3.481414 0.016796 0.092131
  H 4.010692 0.363445 0.955035
  C 3.806282 -0.349136 -0.819132
  C 4.501425 -0.440032 -1.045727
  C 4.819360 -0.798253 -1.938617
  C 4.342871 -1.324403 -3.249867
  H 3.300156 -1.413699 -3.472782
  O 5.474575 -0.742733 -1.800562
  H 0.767825 0.348808 0.918973
  H 0.890862 -1.032335 -0.163536
  H 0.890696 0.597458 -0.818108
  H 3.023830 -0.624911 -1.505783
  H 5.268997 -0.154642 -0.334852
  H 4.805751 -2.310794 -3.369195
  H 4.805974 -0.694261 -4.017948
  H 5.078255 -0.103192 -0.206775
 17
 0.000000
  C 1.134687 -0.019492 0.001935
  C 3.639712 0.024002 0.110103
  H 4.160689 0.372388 0.977347
  C 3.944079 -0.346125 -0.811630
  C 4.569293 -0.440896 -1.047881
  C 4.837861 -0.805655 -1.957073
  C 4.325017 -1.327046 -3.256447
  H 3.276448 -1.406290 -3.454270
  O 5.412878 -0.756953 -1.835991
  H 0.652315 0.342380 0.902952
  H 0.788864 -1.038329 -0.178489
  H 0.788716 0.591466 -0.833056
  H 3.135804 -0.611343 -1.471997
  H 5.374403 -0.170250 -0.373761
  H 4.775397 -2.317826 -3.386731
  H 4.775591 -0.701294 -4.035488
  H 4.799977 -0.045482 -0.062980
