 32
 0.000000
  C 0.911634 0.048619 0.274103
  C 2.403241 0.059205 0.086406
  C 3.241848 -0.012388 1.355317
  C 2.526737 -0.088322 2.700928
  C 3.520980 -0.153371 3.853825
  C 2.996884 0.127487 -1.123676
  C 2.354882 0.204943 -2.496364
  C 0.844693 0.217522 -2.719180
  C 0.516044 0.301460 -4.206780
  C 4.454305 0.132330 -1.209419
  C 5.195353 0.194929 -2.318927
  O 6.554842 0.195897 -2.335980
  H 0.603824 -0.010018 1.313219
  H 0.468728 -0.819717 -0.206124
  H 0.468728 0.965465 -0.105392
  H 3.887252 0.871678 1.386030
  H 3.887254 -0.894302 1.286383
  H 1.893203 -0.977392 2.741475
  H 1.893197 0.790540 2.841235
  H 4.156172 -1.033115 3.772194
  H 2.990089 -0.206868 4.801790
  H 4.156167 0.729967 3.871674
  H 2.741674 -0.643625 -3.071099
  H 2.741672 1.112784 -2.971986
  H 0.391993 1.078628 -2.229652
  H 0.391994 -0.693193 -2.329632
  H 0.921891 1.210545 -4.646113
  H -0.562261 0.309518 -4.349571
  H 0.921892 -0.552434 -4.745594
  H 4.998468 0.079716 -0.276963
  H 4.818973 0.251812 -3.326934
  H 6.883419 0.144740 -1.429341
 32
 10.472172
  C 0.785281 0.049827 0.252700
  C 2.403524 0.061856 0.039418
  C 3.308846 -0.016129 1.421626
  C 2.574469 -0.091234 2.752532
  C 3.555145 -0.156961 3.917439
  C 2.994064 0.129346 -1.156621
  C 2.356647 0.206795 -2.529177
  C 0.847004 0.219381 -2.752139
  C 0.524468 0.303424 -4.241592
  C 4.452354 0.133845 -1.236265
  C 5.197799 0.196148 -2.340525
  O 6.556811 0.196670 -2.349679
  H 0.494726 -0.009088 1.296730
  H 0.343763 -0.816833 -0.226502
  H 0.343763 0.964892 -0.125964
  H 3.951754 0.866800 1.454153
  H 3.951755 -0.897116 1.354623
  H 1.939547 -0.979666 2.783349
  H 1.939542 0.788087 2.883099
  H 4.190860 -1.037170 3.842589
  H 3.013401 -0.210113 4.859300
  H 4.190855 0.726078 3.942078
  H 2.745660 -0.641897 -3.102409
  H 2.745658 1.114589 -3.003292
  H 0.393857 1.080287 -2.262567
  H 0.393860 -0.691137 -2.362527
  H 0.933093 1.212326 -4.678878
  H -0.553236 0.311773 -4.389545
  H 0.933094 -0.550518 -4.778352
  H 4.991872 0.081085 -0.301217
  H 4.826216 0.253131 -3.350311
  H 6.881584 0.145405 -1.441136
 32
 33.404542
  C 0.681899 0.049129 0.265019
  C 2.417059 0.065001 -0.016313
  C 3.388201 -0.019628 1.483634
  C 2.607931 -0.092576 2.776285
  C 3.553086 -0.160020 3.971611
  C 2.996950 0.131633 -1.197120
  C 2.359005 0.208941 -2.567196
  C 0.849354 0.220706 -2.775646
  C 0.522754 0.304739 -4.264901
  C 4.458589 0.135744 -1.269909
  C 5.211387 0.197758 -2.369052
  O 6.569337 0.197651 -2.367142
  H 0.453716 -0.010581 1.323140
  H 0.242874 -0.816336 -0.205960
  H 0.242874 0.962084 -0.105607
  H 4.022917 0.862332 1.512401
  H 4.022920 -0.899225 1.413001
  H 1.969886 -0.979148 2.782329
  H 1.969876 0.787687 2.882029
  H 4.189657 -1.041363 3.914838
  H 2.983292 -0.212225 4.896681
  H 4.189660 0.722127 4.014345
  H 2.748176 -0.639907 -3.140243
  H 2.748175 1.116873 -3.041113
  H 0.400588 1.080663 -2.280822
  H 0.400590 -0.689462 -2.380706
  H 0.931545 1.213457 -4.702491
  H -0.555128 0.313009 -4.411462
  H 0.931541 -0.548977 -4.801933
  H 4.990291 0.082717 -0.330134
  H 4.846137 0.254890 -3.381515
  H 6.889384 0.146282 -1.456742
 32
 60.183186
  C 0.579648 0.048478 0.276583
  C 2.429837 0.067655 -0.063318
  C 3.460970 -0.023975 1.560684
  C 2.633652 -0.095085 2.820792
  C 3.540017 -0.164334 4.048096
  C 3.015477 0.134859 -1.254265
  C 2.371976 0.212007 -2.621516
  C 0.859070 0.222103 -2.800400
  C 0.506922 0.305796 -4.283642
  C 4.479114 0.138648 -1.321368
  C 5.235563 0.200398 -2.415821
  O 6.593759 0.199927 -2.407472
  H 0.403618 -0.011639 1.341912
  H 0.147757 -0.821402 -0.194003
  H 0.147756 0.965778 -0.093155
  H 4.089730 0.862410 1.583119
  H 4.089735 -0.907256 1.483261
  H 1.993621 -0.979932 2.802624
  H 1.993614 0.786181 2.902283
  H 4.176501 -1.046537 4.010959
  H 2.940653 -0.215481 4.954424
  H 4.176492 0.716441 4.110438
  H 2.757177 -0.637030 -3.197061
  H 2.757173 1.120400 -3.097890
  H 0.420351 1.081128 -2.294329
  H 0.420354 -0.688400 -2.394181
  H 0.908449 1.214643 -4.727405
  H -0.573107 0.313102 -4.413106
  H 0.908450 -0.547360 -4.826825
  H 5.003193 0.085378 -0.377262
  H 4.873669 0.257605 -3.429660
  H 6.911223 0.148525 -1.496445
 32
 88.047951
  C 0.479197 0.049912 0.251168
  C 2.445994 0.071666 -0.134395
  C 3.536503 -0.026995 1.614189
  C 2.672353 -0.096234 2.841128
  C 3.542889 -0.166991 4.095158
  C 3.021577 0.136827 -1.289146
  C 2.378875 0.213837 -2.653932
  C 0.864126 0.222489 -2.807221
  C 0.486630 0.305827 -4.284155
  C 4.481152 0.139529 -1.336978
  C 5.252328 0.200859 -2.423992
  O 6.610084 0.199446 -2.398938
  H 0.342262 -0.010428 1.320449
  H 0.059430 -0.821711 -0.221549
  H 0.059431 0.969182 -0.120489
  H 4.157924 0.861661 1.628624
  H 4.157930 -0.911632 1.528560
  H 2.031753 -0.979505 2.801821
  H 2.031747 0.785847 2.901437
  H 4.178781 -1.050177 4.075607
  H 2.917428 -0.217129 4.983619
  H 4.178781 0.712793 4.175087
  H 2.761148 -0.635479 -3.230770
  H 2.761146 1.122652 -3.131561
  H 0.435293 1.080336 -2.290856
  H 0.435290 -0.688012 -2.390634
  H 0.880572 1.214984 -4.734181
  H -0.595316 0.312158 -4.396335
  H 0.880572 -0.546936 -4.833598
  H 4.989139 0.085673 -0.382487
  H 4.901850 0.258301 -3.442019
  H 6.917321 0.147842 -1.484316
 32
 112.007382
  C 0.426180 0.046382 0.313813
  C 2.440558 0.075527 -0.202752
  C 3.621769 -0.032228 1.706960
  C 2.684354 -0.098414 2.879785
  C 3.480804 -0.171995 4.183757
  C 3.034353 0.141520 -1.372254
  C 2.394883 0.219106 -2.747296
  C 0.875230 0.224795 -2.848140
  C 0.438807 0.306960 -4.304387
  C 4.500165 0.142533 -1.390162
  C 5.280436 0.203354 -2.468203
  O 6.637621 0.201425 -2.434015
  H 0.436181 -0.014093 1.385504
  H 0.042663 -0.834078 -0.165507
  H 0.042669 0.975176 -0.063410
  H 4.224330 0.868419 1.688248
  H 4.224325 -0.925041 1.587052
  H 2.046443 -0.980586 2.804950
  H 2.046426 0.786586 2.904662
  H 4.113647 -1.056987 4.196814
  H 2.805358 -0.220037 5.035167
  H 4.113617 0.705879 4.296284
  H 2.774268 -0.630002 -3.326198
  H 2.774268 1.127950 -3.227008
  H 0.475188 1.078572 -2.303854
  H 0.475186 -0.684794 -2.403351
  H 0.814924 1.216654 -4.768065
  H -0.646477 0.311004 -4.376066
  H 0.814921 -0.544790 -4.867438
  H 4.977415 0.087956 -0.422851
  H 4.932680 0.260809 -3.486517
  H 6.939285 0.149743 -1.517940
 32
 135.694497
  C 0.321463 0.047481 0.294319
  C 2.430722 0.078617 -0.257516
  C 3.681296 -0.037293 1.796684
  C 2.728641 -0.101679 2.937605
  C 3.498556 -0.176406 4.261906
  C 3.034777 0.144228 -1.420238
  C 2.401023 0.221661 -2.792564
  C 0.880716 0.226355 -2.875764
  C 0.424619 0.308333 -4.328691
  C 4.500045 0.144334 -1.422069
  C 5.288425 0.204668 -2.491489
  O 6.646426 0.202102 -2.446025
  H 0.361182 -0.012954 1.365298
  H -0.046550 -0.835967 -0.191085
  H -0.046546 0.979933 -0.088613
  H 4.276826 0.863233 1.768188
  H 4.276829 -0.928894 1.667065
  H 2.092072 -0.983426 2.847568
  H 2.092069 0.784590 2.947332
  H 4.130006 -1.062414 4.288280
  H 2.804630 -0.223589 5.098053
  H 4.130004 0.701018 4.387787
  H 2.778704 -0.627457 -3.371539
  H 2.778703 1.130523 -3.272344
  H 0.487007 1.081038 -2.324993
  H 0.487009 -0.684857 -2.424639
  H 0.794498 1.218561 -4.797124
  H -0.661502 0.311631 -4.387152
  H 0.794500 -0.543422 -4.896533
  H 4.964537 0.089245 -0.445703
  H 4.947489 0.262294 -3.512878
  H 6.940459 0.150272 -1.527293
