17

C      2.295931    0.064637    0.815789
H      3.737831    0.587146    0.995754
C      1.429912    1.033814    0.098208
C     -1.341186   -0.045509    0.227019
H     -2.128845    1.009462   -0.464509
C     -1.155490   -1.396740   -0.372382
C     -2.450395   -2.215460   -0.514529
H     -3.110018   -2.267611    0.730924
H      1.884565   -0.129198    1.810223
H      2.327598   -0.880803    0.270110
H      1.583365    1.112237   -0.966190
H      1.315618    1.995227    0.577963
H     -1.528998   -0.076382    1.293422
H     -0.477385   -1.962463    0.270268
H     -0.702417   -1.319846   -1.364117
H     -3.099888   -1.767739   -1.279495
H     -2.180756   -3.226798   -0.852222
