 20
 0.000000
  C 1.008066 -0.071413 0.047863
  C 2.504440 -0.082347 0.026402
  C 3.218649 -0.595807 -0.981609
  C 4.656131 -0.606296 -1.002199
  C 5.377431 -1.121461 -2.013551
  C 6.815653 -1.130921 -2.032120
  C 7.534678 -1.642500 -3.036442
  C 9.024581 -1.661560 -3.073853
  H 0.645556 0.394696 0.962910
  H 0.612654 -1.086146 0.008877
  H 0.612655 0.493674 -0.795866
  H 3.004023 0.354216 0.883450
  H 2.706812 -1.028936 -1.831903
  H 5.160080 -0.171361 -0.148353
  H 4.873937 -1.556486 -2.867579
  H 7.321699 -0.696361 -1.179006
  H 7.036491 -2.078836 -3.893027
  H 9.457670 -1.208326 -2.184083
  H 9.384098 -1.115674 -3.947429
  H 9.384095 -2.689136 -3.145934
 20
 4.458475
  C 0.995004 -0.045654 0.098423
  C 2.472235 -0.114278 -0.036292
  C 3.211195 -0.614494 -1.018297
  C 4.642572 -0.621479 -1.031999
  C 5.370938 -1.124658 -2.019818
  C 6.804342 -1.131297 -2.032845
  C 7.529244 -1.630243 -3.012376
  C 9.016532 -1.645300 -3.041936
  H 0.713651 0.429378 1.030972
  H 0.564309 -1.042167 0.073626
  H 0.564323 0.520183 -0.722207
  H 3.170205 0.248384 0.675674
  H 2.737507 -1.059003 -1.890931
  H 5.140367 -0.186233 -0.177543
  H 4.875558 -1.561274 -2.876974
  H 7.296125 -0.693928 -1.174223
  H 7.038075 -2.067647 -3.871064
  H 9.429855 -1.188919 -2.145989
  H 9.383259 -1.103487 -3.914125
  H 9.383270 -2.669361 -3.116504
 20
 15.069965
  C 0.979558 -0.022026 0.144821
  C 2.436078 -0.134199 -0.075397
  C 3.186431 -0.627312 -1.043462
  C 4.617769 -0.626603 -1.042066
  C 5.365075 -1.131104 -2.032477
  C 6.801682 -1.130535 -2.031356
  C 7.542904 -1.628490 -3.008929
  C 9.029231 -1.636007 -3.023697
  H 0.766924 0.461985 1.094997
  H 0.518188 -1.011482 0.141369
  H 0.518186 0.556937 -0.657567
  H 3.266061 0.158248 0.498720
  H 2.748198 -1.081767 -1.935624
  H 5.114758 -0.189330 -0.183624
  H 4.880063 -1.570526 -2.895143
  H 7.283825 -0.690275 -1.167049
  H 7.062504 -2.068411 -3.872562
  H 9.431376 -1.177881 -2.124307
  H 9.401557 -1.093159 -3.892379
  H 9.401556 -2.657838 -3.095354
 20
 28.984771
  C 0.953772 -0.007461 0.173398
  C 2.392608 -0.140674 -0.088106
  C 3.173263 -0.628232 -1.045231
  C 4.613646 -0.624426 -1.037751
  C 5.367316 -1.130208 -2.030676
  C 6.805130 -1.127616 -2.025612
  C 7.557483 -1.629806 -3.011545
  C 9.048179 -1.635664 -3.023041
  H 0.775006 0.479690 1.129709
  H 0.480486 -0.988442 0.182293
  H 0.480477 0.576498 -0.614906
  H 3.306947 0.092828 0.370282
  H 2.764261 -1.092080 -1.955811
  H 5.116458 -0.186566 -0.178190
  H 4.885270 -1.570374 -2.894815
  H 7.285158 -0.686409 -1.159462
  H 7.079782 -2.071052 -3.877812
  H 9.449587 -1.176555 -2.121687
  H 9.422160 -1.091707 -3.891902
  H 9.422164 -2.658322 -3.093948
 20
 44.387104
  C 0.934671 -0.000502 0.187070
  C 2.364046 -0.143113 -0.092898
  C 3.180323 -0.625141 -1.039184
  C 4.622964 -0.621022 -1.031094
  C 5.373798 -1.127299 -2.024996
  C 6.810601 -1.126015 -2.022492
  C 7.558752 -1.628023 -3.008041
  C 9.052248 -1.635612 -3.022928
  H 0.768681 0.488764 1.147544
  H 0.455472 -0.979986 0.200517
  H 0.455467 0.586254 -0.597328
  H 3.341093 0.044309 0.275027
  H 2.796937 -1.094430 -1.960451
  H 5.133148 -0.184084 -0.173324
  H 4.887808 -1.567563 -2.889312
  H 7.294096 -0.684671 -1.156060
  H 7.077517 -2.069483 -3.874719
  H 9.457515 -1.175729 -2.120069
  H 9.425554 -1.091288 -3.894389
  H 9.425560 -2.660596 -3.095052
 20
 58.003621
  C 0.933846 -0.000258 0.187581
  C 2.365177 -0.138238 -0.083295
  C 3.193160 -0.620688 -1.030456
  C 4.638693 -0.615915 -1.021100
  C 5.386756 -1.123230 -2.017059
  C 6.813166 -1.123284 -2.017171
  C 7.558584 -1.626741 -3.005484
  C 9.033716 -1.635333 -3.022383
  H 0.755040 0.490867 1.151771
  H 0.456372 -0.985126 0.196125
  H 0.456334 0.585775 -0.604089
  H 3.363727 0.004187 0.196326
  H 2.829822 -1.092912 -1.957546
  H 5.157375 -0.178550 -0.162443
  H 4.901248 -1.560268 -2.875014
  H 7.296627 -0.684367 -1.155469
  H 7.079344 -2.064587 -3.865020
  H 9.435653 -1.180889 -2.130296
  H 9.402004 -1.096096 -3.886414
  H 9.402039 -2.651336 -3.094203
 20
 68.984338
  C 0.917343 -0.000703 0.186756
  C 2.363427 -0.123970 -0.055243
  C 3.198524 -0.608542 -1.006617
  C 4.636995 -0.606383 -1.002409
  C 5.380924 -1.117221 -2.005318
  C 6.808760 -1.122270 -2.015174
  C 7.548442 -1.627745 -3.007404
  C 9.063365 -1.642311 -3.036076
  H 0.711177 0.484998 1.140351
  H 0.449019 -0.991996 0.185312
  H 0.448916 0.581137 -0.616061
  H 3.385305 -0.015306 0.158116
  H 2.829386 -1.085166 -1.942405
  H 5.161688 -0.170218 -0.146053
  H 4.893346 -1.549870 -2.854642
  H 7.294890 -0.688061 -1.162675
  H 7.058886 -2.064627 -3.864961
  H 9.479277 -1.184517 -2.137483
  H 9.434816 -1.096713 -3.915099
  H 9.434854 -2.674100 -3.111490
 20
 77.713302
  C 0.913367 -0.009104 0.170211
  C 2.360619 -0.108501 -0.024939
  C 3.209497 -0.596552 -0.983186
  C 4.662528 -0.599038 -0.988085
  C 5.395523 -1.110823 -1.992859
  C 6.829128 -1.120499 -2.011712
  C 7.557771 -1.628828 -3.009495
  C 9.039231 -1.646834 -3.044914
  H 0.665902 0.473737 1.118173
  H 0.465789 -1.000890 0.152886
  H 0.465885 0.559995 -0.642030
  H 3.410120 -0.025190 0.138639
  H 2.835254 -1.074361 -1.921335
  H 5.189634 -0.168180 -0.142092
  H 4.889993 -1.548452 -2.851954
  H 7.333335 -0.679147 -1.145141
  H 7.059819 -2.067507 -3.870512
  H 9.458287 -1.191822 -2.151836
  H 9.401594 -1.107933 -3.916515
  H 9.401599 -2.668650 -3.121324
 20
 85.377744
  C 0.916987 -0.024752 0.139437
  C 2.382384 -0.087443 0.016332
  C 3.233100 -0.575619 -0.942099
  C 4.682959 -0.584171 -0.958871
  C 5.407230 -1.101672 -1.974820
  C 6.821451 -1.116777 -2.004404
  C 7.542089 -1.630398 -3.012665
  C 9.022017 -1.654346 -3.059681
  H 0.605348 0.452416 1.076124
  H 0.495865 -1.029136 0.098734
  H 0.496058 0.532648 -0.696581
  H 3.438964 -0.025902 0.137129
  H 2.853898 -1.053982 -1.881244
  H 5.214811 -0.159720 -0.125547
  H 4.891250 -1.539471 -2.834293
  H 7.329065 -0.680807 -1.148465
  H 7.033333 -2.069387 -3.874439
  H 9.454237 -1.196201 -2.160347
  H 9.380620 -1.113827 -3.939420
  H 9.380691 -2.683918 -3.139709
 20
 90.739192
  C 0.908908 -0.028547 0.126382
  C 2.372488 -0.080560 0.045392
  C 3.232621 -0.571663 -0.925280
  C 4.686377 -0.581200 -0.950225
  C 5.401318 -1.101706 -1.966366
  C 6.834000 -1.118623 -2.009020
  C 7.544295 -1.634178 -3.015755
  C 9.029579 -1.660144 -3.075633
  H 0.570225 0.425244 1.055966
  H 0.492112 -1.037608 0.053323
  H 0.507976 0.546625 -0.713430
  H 3.448233 -0.026090 0.126208
  H 2.852344 -1.056333 -1.858117
  H 5.230460 -0.151549 -0.118509
  H 4.886245 -1.535833 -2.807310
  H 7.349387 -0.680743 -1.161176
  H 7.030685 -2.073193 -3.865770
  H 9.465814 -1.203336 -2.190476
  H 9.382088 -1.124252 -3.958800
  H 9.387256 -2.688513 -3.154115
 20
 95.647058
  C 0.911518 -0.038410 0.093411
  C 2.381947 -0.080024 0.083777
  C 3.242527 -0.566691 -0.889734
  C 4.701058 -0.574778 -0.929537
  C 5.405629 -1.099011 -1.951452
  C 6.835281 -1.117190 -2.008273
  C 7.535694 -1.637683 -3.022078
  C 9.020040 -1.663812 -3.096347
  H 0.527482 0.397685 1.007084
  H 0.505926 -1.051351 -0.012799
  H 0.546167 0.547702 -0.758493
  H 3.461758 -0.028584 0.131273
  H 2.857132 -1.055354 -1.813550
  H 5.256885 -0.138525 -0.097447
  H 4.877405 -1.538389 -2.789760
  H 7.363852 -0.673211 -1.160484
  H 7.010459 -2.082884 -3.871231
  H 9.465922 -1.202946 -2.215764
  H 9.363166 -1.131774 -3.984143
  H 9.376230 -2.691612 -3.174512
 20
 101.011016
  C 0.908992 -0.042393 0.084375
  C 2.377770 -0.088950 0.094364
  C 3.248823 -0.565973 -0.890087
  C 4.706152 -0.574212 -0.931032
  C 5.405863 -1.101515 -1.952536
  C 6.838969 -1.118604 -2.014179
  C 7.536009 -1.641269 -3.025972
  C 9.021247 -1.666544 -3.105837
  H 0.513626 0.372173 1.005278
  H 0.497628 -1.046546 -0.056546
  H 0.558763 0.567089 -0.753572
  H 3.468301 -0.026190 0.100235
  H 2.863550 -1.071927 -1.810131
  H 5.267277 -0.132649 -0.100091
  H 4.876579 -1.544382 -2.787425
  H 7.364542 -0.675380 -1.178268
  H 7.011865 -2.086654 -3.864378
  H 9.469646 -1.202012 -2.229349
  H 9.361136 -1.137823 -3.997289
  H 9.378676 -2.694585 -3.181263
 20
 106.593111
  C 0.911878 -0.071537 0.070602
  C 2.383176 -0.050754 0.107234
  C 3.256886 -0.528881 -0.886002
  C 4.718029 -0.556813 -0.928548
  C 5.415371 -1.087175 -1.956741
  C 6.836658 -1.119316 -2.016747
  C 7.528289 -1.644344 -3.034881
  C 9.017409 -1.686764 -3.114660
  H 0.481858 0.342921 0.982840
  H 0.545521 -1.099998 -0.060966
  H 0.546568 0.506652 -0.781793
  H 3.477947 0.007931 0.068778
  H 2.863895 -1.018320 -1.806576
  H 5.269790 -0.137985 -0.114531
  H 4.885658 -1.516210 -2.792146
  H 7.375727 -0.680005 -1.162047
  H 6.995046 -2.080608 -3.882751
  H 9.470615 -1.235389 -2.237469
  H 9.363389 -1.156996 -4.000292
  H 9.361858 -2.715621 -3.197322
 20
 110.532638
  C 0.886733 -0.035530 0.129945
  C 2.343063 -0.135864 -0.008556
  C 3.237149 -0.591018 -0.972053
  C 4.699510 -0.593437 -0.990351
  C 5.415459 -1.117356 -1.999430
  C 6.853921 -1.130237 -2.039992
  C 7.568149 -1.649985 -3.040878
  C 9.052847 -1.672690 -3.098250
  H 0.607320 0.376622 1.095467
  H 0.424207 -1.016946 0.015859
  H 0.472002 0.602958 -0.657097
  H 3.424885 -0.033743 -0.021334
  H 2.864867 -1.093447 -1.895749
  H 5.242635 -0.148244 -0.149016
  H 4.898127 -1.562705 -2.844800
  H 7.364227 -0.686259 -1.196734
  H 7.064852 -2.089913 -3.877442
  H 9.485190 -1.208666 -2.214663
  H 9.407706 -1.139165 -3.988015
  H 9.414863 -2.704773 -3.169235
