14

C 1.003935 0.138705 0.361449
C 2.483603 0.155402 0.397685
H 3.032120177395828 0.4907583330206019 1.2530007522252753
C 3.114431 -0.295082 -0.7501
C 4.487382 -0.396916 -0.991201
C 5.139314 -0.863467 -2.122018
H 4.76525295043989 -1.2445067469046664 -3.0492650234413357
O 6.465118 -0.870796 -2.132503
H 0.542702 0.495282 1.275972
H 0.641729 -0.876695 0.177128
H 0.645441 0.760851 -0.459674
H 2.451184 -0.608121 -1.54023
H 5.123331 -0.063592 -0.177711
H 6.852481 -0.531003 -1.304147
