 23
 0.000000
  H 1.349073 0.078604 -0.015644
  C 2.426411 0.070243 -0.051299
  C 3.136311 0.013833 1.270669
  H 2.462857 -0.012688 2.120791
  C 3.076329 0.123914 -1.217105
  C 2.439618 0.213651 -2.579196
  C 0.914227 0.197810 -2.623265
  C 0.410957 0.295335 -4.059988
  C 4.535777 0.125834 -1.247959
  C 5.310911 0.184399 -2.332047
  O 6.668197 0.183587 -2.307208
  H 3.789131 0.885510 1.376166
  H 3.764406 -0.877493 1.316812
  H 2.809171 -0.619820 -3.184139
  H 2.787441 1.134593 -3.057064
  H 0.515699 1.039456 -2.053590
  H 0.538039 -0.726582 -2.180829
  H 0.751172 1.217900 -4.525758
  H -0.676668 0.283425 -4.082487
  H 0.773315 -0.541968 -4.652797
  H 5.044817 0.074388 -0.294524
  H 4.958670 0.239398 -3.349395
  H 6.976245 0.134343 -1.392705
 23
 -0.497218
  H 1.376934 -0.024388 -0.098670
  C 2.454124 0.019790 -0.092005
  C 3.088459 0.043661 1.266420
  H 2.356518 0.324137 2.018933
  C 3.125388 0.110300 -1.246146
  C 2.462658 0.207808 -2.598678
  C 0.936547 0.166112 -2.601366
  C 0.389422 0.296049 -4.018770
  C 4.582775 0.102498 -1.267877
  C 5.359685 0.264510 -2.345113
  O 6.717461 0.225077 -2.334053
  H 3.898271 0.771520 1.286301
  H 3.490632 -0.934123 1.535206
  H 2.834985 -0.606979 -3.226124
  H 2.783146 1.146212 -3.060594
  H 0.545753 0.982271 -1.990702
  H 0.594024 -0.777231 -2.170906
  H 0.701699 1.238120 -4.464786
  H -0.697627 0.263440 -4.013992
  H 0.753447 -0.515769 -4.645211
  H 5.078952 -0.077986 -0.322015
  H 4.995660 0.446883 -3.343659
  H 7.031903 0.059659 -1.433425
 23
 1.007985
  H 1.384059 -0.240798 -0.098264
  C 2.450811 -0.082953 -0.090435
  C 3.079271 0.072963 1.260946
  H 2.391583 0.598952 1.921350
  C 3.119327 0.085169 -1.236084
  C 2.462955 0.180430 -2.593053
  C 0.936302 0.153836 -2.594295
  C 0.387236 0.313705 -4.007410
  C 4.576921 0.082595 -1.267003
  C 5.345922 0.343314 -2.324933
  O 6.700532 0.267892 -2.333333
  H 3.969904 0.688138 1.153961
  H 3.324705 -0.884309 1.719025
  H 2.830303 -0.633750 -3.224447
  H 2.789831 1.119130 -3.048762
  H 0.556976 0.961771 -1.965497
  H 0.584402 -0.793169 -2.180346
  H 0.707924 1.260029 -4.438143
  H -0.700062 0.291088 -4.001106
  H 0.743103 -0.490474 -4.648239
  H 5.079217 -0.205221 -0.351643
  H 4.978365 0.638980 -3.294319
  H 7.017106 -0.003577 -1.461864
 23
 3.763362
  H 1.441669 -0.531455 -0.105744
  C 2.464703 -0.188779 -0.093960
  C 3.055304 0.085198 1.252451
  H 2.414638 0.808368 1.761942
  C 3.124545 0.065844 -1.233783
  C 2.467567 0.154414 -2.592546
  C 0.940615 0.167044 -2.581640
  C 0.383152 0.343816 -3.989181
  C 4.584552 0.089082 -1.271842
  C 5.347166 0.391981 -2.324001
  O 6.697911 0.291907 -2.351825
  H 4.014050 0.579463 1.105307
  H 3.133975 -0.795608 1.885839
  H 2.811219 -0.672190 -3.221780
  H 2.813380 1.082062 -3.054812
  H 0.589962 0.983414 -1.946444
  H 0.565130 -0.769926 -2.165624
  H 0.720111 1.284807 -4.419355
  H -0.704293 0.344871 -3.973308
  H 0.715098 -0.465462 -4.635445
  H 5.095832 -0.235660 -0.372946
  H 4.975407 0.734326 -3.274683
  H 7.018793 -0.011689 -1.495299
 23
 13.773914
  H 1.581038 -0.927094 -0.137611
  C 2.488559 -0.346252 -0.113584
  C 3.012507 0.130590 1.201915
  H 2.328886 0.904788 1.567312
  C 3.132974 0.058391 -1.224947
  C 2.476621 0.150806 -2.586311
  C 0.950732 0.198248 -2.553634
  C 0.372824 0.379136 -3.952705
  C 4.589850 0.057694 -1.263929
  C 5.361954 0.439803 -2.285816
  O 6.701956 0.276728 -2.335934
  H 3.899947 0.717916 0.939310
  H 3.126235 -0.618401 1.978545
  H 2.788259 -0.691835 -3.213736
  H 2.844279 1.061675 -3.061402
  H 0.626684 1.021019 -1.911804
  H 0.561519 -0.727417 -2.126927
  H 0.740251 1.299174 -4.402471
  H -0.713475 0.427008 -3.916455
  H 0.659493 -0.450888 -4.593894
  H 5.089233 -0.360213 -0.395734
  H 5.002355 0.887552 -3.195165
  H 7.006427 -0.139406 -1.524870
 23
 32.286431
  H 1.798514 -1.251934 -0.133965
  C 2.494641 -0.439941 -0.119384
  C 2.971355 0.192158 1.140837
  H 2.253512 0.952546 1.483273
  C 3.116782 0.068354 -1.201141
  C 2.488239 0.167772 -2.569944
  C 0.964282 0.175382 -2.538251
  C 0.379591 0.445166 -3.923689
  C 4.568671 0.067754 -1.228261
  C 5.348526 0.353353 -2.283170
  O 6.680480 0.108588 -2.338193
  H 3.676644 0.932464 0.677170
  H 3.233556 -0.454895 1.967984
  H 2.842785 -0.627030 -3.234003
  H 2.824989 1.115526 -2.993708
  H 0.623087 0.953309 -1.845231
  H 0.595016 -0.780988 -2.169747
  H 0.692209 1.419531 -4.285606
  H -0.709885 0.424075 -3.892064
  H 0.714826 -0.303765 -4.632592
  H 5.058205 -0.278886 -0.320962
  H 4.996095 0.741114 -3.219304
  H 6.984929 -0.220619 -1.477081
 23
 61.496079
  H 1.906725 -1.460154 -0.188895
  C 2.516967 -0.573035 -0.137387
  C 2.852871 0.196760 1.075639
  H 2.228547 1.070930 1.295813
  C 3.157406 0.061001 -1.184641
  C 2.505577 0.236362 -2.544647
  C 0.975914 0.240032 -2.482605
  C 0.365896 0.450822 -3.861245
  C 4.609689 -0.022974 -1.233632
  C 5.388368 0.278995 -2.283105
  O 6.748106 0.171932 -2.288197
  H 3.500396 0.915611 0.381582
  H 3.063964 -0.368617 1.977622
  H 2.829890 -0.560293 -3.223961
  H 2.846670 1.185248 -2.966942
  H 0.647531 1.037273 -1.812511
  H 0.622716 -0.705883 -2.074033
  H 0.689641 1.397904 -4.284042
  H -0.719541 0.453173 -3.803271
  H 0.667247 -0.347149 -4.535555
  H 5.092245 -0.369144 -0.325375
  H 5.029851 0.632502 -3.235647
  H 7.043823 -0.154663 -1.442452
 23
 82.264616
  H 1.954659 -1.515803 -0.180384
  C 2.528211 -0.605070 -0.103690
  C 2.741165 0.160052 1.054087
  H 2.229034 1.103797 1.180363
  C 3.180213 0.090882 -1.165657
  C 2.512531 0.255442 -2.521240
  C 0.986579 0.229753 -2.447664
  C 0.360448 0.453464 -3.819032
  C 4.657408 -0.006919 -1.222732
  C 5.420942 0.282025 -2.271944
  O 6.777996 0.129519 -2.305944
  H 3.434907 0.972014 -0.006502
  H 2.887358 -0.330310 2.019662
  H 2.859132 -0.530066 -3.200072
  H 2.825201 1.213162 -2.946436
  H 0.645913 1.007692 -1.759792
  H 0.651980 -0.730661 -2.053000
  H 0.658796 1.418613 -4.223263
  H -0.724884 0.430216 -3.753634
  H 0.678805 -0.320664 -4.513939
  H 5.136268 -0.373052 -0.320103
  H 5.056443 0.659211 -3.212094
  H 7.082303 -0.219169 -1.459602
 23
 63.085675
  H 2.109302 -1.609001 -0.229562
  C 2.570933 -0.638287 -0.096411
  C 2.590201 0.092003 1.050126
  H 2.081848 1.039881 1.107326
  C 3.223003 0.182342 -1.164570
  C 2.530738 0.306728 -2.505839
  C 1.003167 0.279964 -2.398251
  C 0.341595 0.450094 -3.758322
  C 4.720830 0.040745 -1.227082
  C 5.483124 0.240327 -2.302453
  O 6.834619 0.071781 -2.339181
  H 3.333243 1.007810 -0.319695
  H 2.651682 -0.374506 2.036713
  H 2.868876 -0.501196 -3.158278
  H 2.828703 1.251881 -2.969483
  H 0.676275 1.081447 -1.730909
  H 0.679250 -0.663895 -1.959439
  H 0.623225 1.399108 -4.206250
  H -0.741621 0.422390 -3.662670
  H 0.644673 -0.349725 -4.429448
  H 5.189245 -0.281108 -0.300928
  H 5.114433 0.553882 -3.264216
  H 7.147027 -0.214176 -1.471840
 23
 37.515577
  H 2.178840 -1.574821 -0.265276
  C 2.603298 -0.605009 -0.070912
  C 2.542213 0.027116 1.099206
  H 2.265833 1.063462 1.189757
  C 3.219753 0.232655 -1.160242
  C 2.525056 0.344668 -2.505152
  C 1.003103 0.282145 -2.395359
  C 0.338410 0.420322 -3.759998
  C 4.723018 0.041874 -1.234676
  C 5.481932 0.247973 -2.302713
  O 6.827665 0.067761 -2.348274
  H 3.306849 1.134709 -0.490368
  H 2.447351 -0.476029 2.059041
  H 2.877377 -0.459721 -3.155399
  H 2.801438 1.288830 -2.976182
  H 0.657408 1.078397 -1.733966
  H 0.705471 -0.669108 -1.945915
  H 0.610085 1.369556 -4.223084
  H -0.744340 0.390345 -3.662623
  H 0.648002 -0.384360 -4.420094
  H 5.182359 -0.314536 -0.319475
  H 5.109539 0.575530 -3.259489
  H 7.135913 -0.246571 -1.497261
 23
 21.671039
  H 2.303077 -1.531422 -0.390956
  C 2.653518 -0.552536 -0.102462
  C 2.488638 -0.059215 1.116042
  H 2.258064 0.977926 1.292162
  C 3.232237 0.361734 -1.151904
  C 2.529380 0.391287 -2.503130
  C 1.007463 0.325944 -2.379243
  C 0.334474 0.395943 -3.745042
  C 4.722006 0.111282 -1.225888
  C 5.473912 0.165808 -2.319933
  O 6.821139 -0.028604 -2.355336
  H 3.201730 1.321646 -0.603069
  H 2.349629 -0.681409 1.990531
  H 2.882929 -0.443876 -3.111583
  H 2.794935 1.316227 -3.019360
  H 0.662214 1.156929 -1.759998
  H 0.714383 -0.600150 -1.881154
  H 0.585927 1.327612 -4.248393
  H -0.746664 0.342367 -3.642920
  H 0.660949 -0.430037 -4.373196
  H 5.188458 -0.109478 -0.272157
  H 5.096431 0.390699 -3.304750
  H 7.141249 -0.232286 -1.467319
 23
 10.574467
  H 2.389066 -1.475397 -0.456730
  C 2.664429 -0.488211 -0.112626
  C 2.450639 -0.121650 1.138124
  H 2.455581 0.907322 1.457068
  C 3.236444 0.445995 -1.142814
  C 2.530598 0.397598 -2.498497
  C 1.008155 0.346686 -2.373194
  C 0.337727 0.352531 -3.741842
  C 4.720389 0.174484 -1.218989
  C 5.462869 0.167090 -2.315102
  O 6.803818 -0.055523 -2.351147
  H 3.152302 1.449962 -0.703220
  H 2.179338 -0.843694 1.892270
  H 2.880978 -0.470775 -3.060132
  H 2.797523 1.292759 -3.064298
  H 0.666341 1.209291 -1.796241
  H 0.707450 -0.550736 -1.830849
  H 0.599237 1.253717 -4.292518
  H -0.744252 0.316032 -3.638586
  H 0.656176 -0.508472 -4.325698
  H 5.191289 -0.014652 -0.260656
  H 5.081617 0.352566 -3.306541
  H 7.128364 -0.220533 -1.456842
 23
 7.014892
  H 2.700113 -1.549181 -0.496208
  C 2.716622 -0.524203 -0.148238
  C 2.326106 -0.230693 1.077968
  H 2.330197 0.777456 1.457890
  C 3.257913 0.472080 -1.135928
  C 2.542892 0.357846 -2.484922
  C 1.025026 0.457013 -2.340711
  C 0.327886 0.379097 -3.693364
  C 4.746900 0.255667 -1.223496
  C 5.465207 0.127761 -2.326615
  O 6.810305 -0.063278 -2.366771
  H 3.089023 1.476884 -0.727863
  H 1.967679 -0.996734 1.745499
  H 2.802695 -0.593652 -2.953250
  H 2.886239 1.162868 -3.138063
  H 0.771050 1.401716 -1.854061
  H 0.665233 -0.349448 -1.698724
  H 0.668679 1.180220 -4.345872
  H -0.749419 0.468369 -3.574980
  H 0.542162 -0.570744 -4.178675
  H 5.246334 0.206465 -0.261666
  H 5.057109 0.165094 -3.323769
  H 7.160125 -0.094212 -1.467238
