 19
 0.000000
  C 0.984860 0.139501 0.379627
  C 2.450591 0.138948 0.379093
  C 3.226548 0.600694 1.544578
  C 2.449223 1.084116 2.757917
  H 3.145268 1.391291 3.533793
  C 3.100605 -0.322071 -0.772291
  C 4.497973 -0.385388 -0.935662
  C 5.117622 -0.843509 -2.052076
  H 4.631632 -1.217810 -2.937211
  H 6.195724 -0.852799 -2.085033
  H 0.553308 0.498202 1.305594
  H 0.613809 -0.867676 0.175768
  H 0.609845 0.751030 -0.443584
  H 3.896544 1.403643 1.212119
  H 3.894024 -0.213206 1.854451
  H 1.817753 0.298512 3.166306
  H 1.820301 1.937316 2.514822
  H 2.486821 -0.656543 -1.598290
  H 5.124483 -0.047781 -0.122520
 19
 0.518491
  C 1.048122 0.123195 0.335498
  C 2.507420 0.113056 0.448850
  C 3.233737 0.599688 1.625157
  C 2.394533 1.101139 2.797256
  H 3.048825 1.426956 3.603427
  C 3.173801 -0.350558 -0.695504
  C 4.544672 -0.383090 -0.923341
  C 5.021040 -0.814343 -2.123684
  H 4.376325 -1.145818 -2.921151
  H 6.089858 -0.864535 -2.298716
  H 0.531292 0.572703 1.162626
  H 0.675893 -0.883195 0.182657
  H 0.828654 0.641199 -0.615264
  H 3.923623 1.396892 1.301376
  H 3.900463 -0.207789 1.973308
  H 1.750216 0.317454 3.186909
  H 1.776533 1.947536 2.509302
  H 2.560098 -0.694335 -1.513792
  H 5.231926 -0.061506 -0.159011
 19
 1.224955
  C 1.056243 0.111785 0.329754
  C 2.508548 -0.021601 0.485847
  C 3.222788 0.475744 1.671041
  C 2.403723 1.198292 2.726632
  H 3.054136 1.510304 3.538922
  C 3.194805 -0.583419 -0.594147
  C 4.554244 -0.395051 -0.915249
  C 5.010824 -0.684000 -2.159197
  H 4.364542 -1.125014 -2.900998
  H 6.019676 -0.465569 -2.464720
  H 0.549869 0.460476 1.221295
  H 0.614574 -0.820336 -0.021740
  H 0.888193 0.829772 -0.479124
  H 4.042182 1.125884 1.341837
  H 3.734640 -0.379595 2.132994
  H 1.637387 0.554246 3.151075
  H 1.926439 2.084583 2.316980
  H 2.603270 -1.109684 -1.333483
  H 5.216148 0.069638 -0.198606
 19
 5.895714
  C 1.144931 0.099261 0.264012
  C 2.562639 -0.136806 0.560738
  C 3.225466 0.408548 1.754265
  C 2.383623 1.261620 2.688657
  H 2.987026 1.573540 3.536096
  C 3.276463 -0.791905 -0.446760
  C 4.561935 -0.425523 -0.901577
  C 4.855436 -0.550101 -2.215836
  H 4.174388 -1.041182 -2.891767
  H 5.751589 -0.138805 -2.645698
  H 0.584396 0.503887 1.098900
  H 0.661400 -0.790366 -0.135135
  H 1.145289 0.832065 -0.550872
  H 4.111159 0.973049 1.442280
  H 3.640590 -0.441620 2.311971
  H 1.532317 0.710204 3.081711
  H 2.020078 2.153501 2.185220
  H 2.718931 -1.457400 -1.095071
  H 5.235639 0.100548 -0.239916
 19
 11.410297
  C 1.216183 0.056173 0.217777
  C 2.599557 -0.232029 0.612602
  C 3.226024 0.356400 1.805772
  C 2.387947 1.328317 2.620510
  H 2.940851 1.629028 3.506308
  C 3.335746 -0.930519 -0.350581
  C 4.565609 -0.459353 -0.879175
  C 4.695335 -0.396550 -2.220331
  H 3.983932 -0.879292 -2.869554
  H 5.495400 0.142493 -2.695658
  H 0.618353 0.499730 1.005757
  H 0.719220 -0.811317 -0.212807
  H 1.327895 0.781014 -0.597185
  H 4.167177 0.835946 1.514040
  H 3.545177 -0.477895 2.446035
  H 1.457822 0.876839 2.956902
  H 2.156279 2.221704 2.046343
  H 2.804697 -1.655853 -0.957014
  H 5.297463 -0.007774 -0.224497
 19
 18.899296
  C 1.361577 0.156397 0.085385
  C 2.665344 -0.227839 0.644692
  C 3.231625 0.362011 1.863484
  C 2.326198 1.276469 2.670802
  H 2.832298 1.570619 3.586148
  C 3.425705 -1.006150 -0.241000
  C 4.570083 -0.471714 -0.900933
  C 4.495624 -0.393191 -2.239546
  H 3.726523 -0.914096 -2.785434
  H 5.208026 0.161455 -2.823772
  H 0.738458 0.720558 0.769236
  H 0.819464 -0.685344 -0.339000
  H 1.655821 0.792652 -0.761554
  H 4.156448 0.890568 1.600125
  H 3.574779 -0.468140 2.493959
  H 1.403295 0.775176 2.953321
  H 2.081272 2.179657 2.117208
  H 2.921607 -1.821318 -0.749501
  H 5.303576 0.087425 -0.337179
 19
 26.576796
  C 1.438680 0.074247 0.044147
  C 2.694212 -0.334631 0.693280
  C 3.215128 0.260422 1.925040
  C 2.392570 1.375914 2.549909
  H 2.848855 1.681679 3.487851
  C 3.477658 -1.116134 -0.178146
  C 4.548269 -0.472272 -0.883738
  C 4.281787 -0.182191 -2.167790
  H 3.517536 -0.702958 -2.719926
  H 4.901656 0.488443 -2.734282
  H 0.767684 0.646224 0.673677
  H 0.924303 -0.746150 -0.451632
  H 1.846609 0.701760 -0.767454
  H 4.243359 0.596661 1.747982
  H 3.328920 -0.559084 2.648249
  H 1.379048 1.050985 2.769004
  H 2.350448 2.243185 1.897221
  H 2.965376 -1.899681 -0.730515
  H 5.329022 0.032115 -0.333960
 19
 36.499366
  C 1.558340 0.163706 -0.052252
  C 2.718692 -0.325300 0.695237
  C 3.214471 0.262833 1.939803
  C 2.354061 1.342697 2.576960
  H 2.759516 1.601425 3.551014
  C 3.522750 -1.157480 -0.118192
  C 4.521520 -0.473549 -0.906036
  C 4.089857 -0.136271 -2.125672
  H 3.353493 -0.712592 -2.660071
  H 4.646164 0.566182 -2.724319
  H 0.972554 0.912787 0.462583
  H 0.936314 -0.615464 -0.491407
  H 2.077215 0.586736 -0.944519
  H 4.234251 0.631503 1.769296
  H 3.343784 -0.564895 2.648905
  H 1.334210 1.001037 2.725126
  H 2.340909 2.243709 1.968722
  H 3.056803 -2.026336 -0.571592
  H 5.359575 0.010704 -0.427330
 19
 52.969942
  C 1.639519 0.122384 -0.093204
  C 2.707257 -0.374877 0.716242
  C 3.210595 0.225073 1.958368
  C 2.397846 1.388181 2.498652
  H 2.826478 1.707726 3.436244
  C 3.545768 -1.251103 -0.083958
  C 4.465728 -0.480289 -0.897173
  C 3.871855 0.000210 -1.975748
  H 3.219543 -0.616608 -2.582074
  H 4.364824 0.784442 -2.528934
  H 1.048789 0.905519 0.337667
  H 1.065735 -0.591854 -0.668170
  H 2.351467 0.487731 -1.005467
  H 4.244523 0.503510 1.816513
  H 3.246680 -0.582936 2.711373
  H 1.358304 1.101148 2.677253
  H 2.416385 2.224096 1.815337
  H 3.059486 -2.064970 -0.565818
  H 5.295016 0.021941 -0.425306
 19
 64.109491
  C 1.691628 0.128537 -0.083120
  C 2.694166 -0.362778 0.728611
  C 3.195676 0.227395 1.985137
  C 2.376591 1.388393 2.529183
  H 2.800732 1.720834 3.472983
  C 3.537953 -1.236055 -0.068731
  C 4.424121 -0.477124 -0.895952
  C 3.752105 0.040446 -1.992741
  H 3.124266 -0.602613 -2.598708
  H 4.255413 0.806223 -2.563751
  H 1.111556 0.959137 0.286865
  H 1.141192 -0.524238 -0.744610
  H 2.626936 0.480020 -1.240681
  H 4.239656 0.525742 1.837915
  H 3.224664 -0.574367 2.731068
  H 1.347178 1.092592 2.713303
  H 2.386341 2.229536 1.840842
  H 3.054304 -2.100844 -0.512054
  H 5.298870 0.002694 -0.481805
 19
 56.523474
  C 1.642912 0.079217 -0.005754
  C 2.646285 -0.365494 0.751973
  C 3.208201 0.244253 1.971933
  C 2.379092 1.406373 2.530449
  H 2.847867 1.771308 3.434057
  C 3.473220 -1.220204 -0.100122
  C 4.371581 -0.459694 -0.879028
  C 3.757444 0.091434 -2.025768
  H 3.198578 -0.578949 -2.673711
  H 4.327965 0.824255 -2.578297
  H 1.049933 0.901875 0.361334
  H 1.133485 -0.547511 -0.721724
  H 2.811220 0.519573 -1.457746
  H 4.216468 0.556685 1.779600
  H 3.281856 -0.555305 2.747898
  H 1.363132 1.099142 2.779605
  H 2.329164 2.222574 1.809682
  H 2.964878 -2.047177 -0.572400
  H 5.240697 -0.005717 -0.426218
 19
 43.284686
  C 1.512917 0.056985 0.113664
  C 2.615714 -0.330693 0.778766
  C 3.197546 0.270751 2.012199
  C 2.372524 1.408218 2.602935
  H 2.848253 1.766006 3.511826
  C 3.426630 -1.106895 -0.145947
  C 4.349045 -0.407459 -0.926964
  C 3.827261 0.068200 -2.198888
  H 3.310995 -0.687463 -2.793421
  H 4.504567 0.667120 -2.788953
  H 0.889250 0.840125 0.509915
  H 1.064271 -0.533053 -0.667224
  H 2.973853 0.661743 -1.792436
  H 4.215733 0.612315 1.815563
  H 3.279321 -0.537009 2.749547
  H 1.370221 1.075763 2.858856
  H 2.303187 2.242772 1.907827
  H 2.943204 -1.980698 -0.578034
  H 5.219527 0.063349 -0.485664
 19
 34.869071
  C 1.424277 0.130282 0.177560
  C 2.596891 -0.211873 0.748930
  C 3.238769 0.409795 1.943098
  C 2.316132 1.336291 2.725688
  H 2.838044 1.713119 3.600745
  C 3.329379 -1.034433 -0.188541
  C 4.325580 -0.430328 -0.942300
  C 3.947875 -0.032392 -2.298871
  H 3.519947 -0.841194 -2.889871
  H 4.715558 0.502226 -2.837973
  H 0.830808 0.937955 0.567701
  H 0.970259 -0.453630 -0.605464
  H 3.092024 0.626519 -2.070309
  H 4.138987 0.953002 1.647929
  H 3.565813 -0.408791 2.590567
  H 1.429580 0.807814 3.064697
  H 2.011554 2.189286 2.125981
  H 2.748689 -1.815748 -0.673008
  H 5.218119 -0.019427 -0.487758
 19
 28.290235
  C 1.329040 0.042043 0.279203
  C 2.557950 -0.262448 0.761869
  C 3.228675 0.372734 1.932434
  C 2.367331 1.386192 2.673711
  H 2.902066 1.744790 3.549104
  C 3.293075 -0.967393 -0.258070
  C 4.301291 -0.333342 -0.965057
  C 4.023486 -0.001224 -2.362890
  H 3.626188 -0.840914 -2.932164
  H 4.843505 0.488113 -2.875761
  H 0.709946 0.790038 0.740677
  H 0.889663 -0.502294 -0.539677
  H 3.183145 0.701173 -2.240509
  H 4.162767 0.844423 1.623710
  H 3.499487 -0.439353 2.616193
  H 1.437290 0.936910 3.010415
  H 2.140831 2.244762 2.047486
  H 2.764107 -1.777314 -0.754382
  H 5.132967 0.141720 -0.461889
 19
 24.083720
  C 1.284986 0.132308 0.333133
  C 2.533255 -0.191356 0.757181
  C 3.229944 0.406062 1.929342
  C 2.358939 1.324963 2.774962
  H 2.925082 1.677839 3.627423
  C 3.224288 -0.896173 -0.299737
  C 4.260931 -0.286255 -0.984842
  C 4.108047 -0.125477 -2.433459
  H 3.886585 -1.059108 -2.957023
  H 4.942591 0.398875 -2.887337
  H 0.699396 0.891118 0.815563
  H 0.852754 -0.343374 -0.532557
  H 3.197905 0.484781 -2.540181
  H 4.128729 0.946613 1.606607
  H 3.576740 -0.428818 2.548672
  H 1.486098 0.800530 3.149088
  H 2.038189 2.193474 2.210086
  H 2.676786 -1.684718 -0.806854
  H 4.981566 0.327331 -0.465666
