20

H 1.384016608341725 0.13786838210510244 0.3939318553221603
C 2.454013 0.139037 0.396453
H 3.0173091434785757 0.47817093259455046 1.2406008724163908
C 3.075154 -0.323445 -0.755457
C 4.453051 -0.41132 -0.97438
C 5.123091 -0.863652 -2.101643
C 4.621539 -1.386299 -3.404214
C 3.129631 -1.502892 -3.695488
C 2.900971 -2.064776 -5.09589
O 6.448357 -0.861732 -2.096972
H 2.419676 -0.641874 -1.548482
H 5.074642 -0.080448 -0.15012
H 5.074798 -2.376186 -3.531176
H 5.075111 -0.758952 -4.180234
H 2.655258 -0.521998 -3.641322
H 2.654907 -2.17409 -2.978375
H 3.337991 -1.417938 -5.853563
H 1.834936 -2.144711 -5.295684
H 3.337647 -3.056093 -5.196233
H 6.824653 -0.526795 -1.261478
