27

C 0.908957 0.051234 0.265899
C 2.403139 0.059608 0.08463
C 3.241948 -0.013076 1.354619
C 2.524389 -0.087838 2.700702
C 3.521318 -0.153964 3.851691
C 2.999883 0.1263 -1.121835
C 2.353543 0.203969 -2.494463
C 0.84187 0.21614 -2.712854
C 0.515266 0.300442 -4.201114
H 4.067944830379595 0.13079030342599537 -1.1860515372885418
H 0.600724 -0.010726 1.30474
H 0.466884 -0.814538 -0.221374
H 0.465268 0.968898 -0.116051
H 3.889283 0.870028 1.386079
H 3.886822 -0.895926 1.286622
H 1.889884 -0.976535 2.741769
H 1.892302 0.792374 2.84127
H 4.155663 -1.034847 3.767549
H 2.99302 -0.206708 4.802021
H 4.158089 0.729051 3.866797
H 2.740336 -0.644759 -3.070024
H 2.740107 1.112369 -2.97048
H 0.389447 1.077095 -2.221927
H 0.389665 -0.694919 -2.322386
H 0.922973 1.209962 -4.639309
H -0.563528 0.308537 -4.346534
H 0.92321 -0.553627 -4.73927
