 23
 0.000000
  C 1.009384 0.112670 0.329328
  C 2.481849 0.123219 0.364860
  C 3.231814 0.601848 1.551703
  C 2.413911 1.082641 2.743211
  H 3.086446 1.401693 3.536997
  C 3.146297 -0.333824 -0.770986
  C 4.532051 -0.396275 -0.931644
  C 5.190305 -0.850856 -2.071672
  C 4.537110 -1.340956 -3.305014
  H 3.457267 -1.321664 -3.260499
  O 6.500566 -0.873893 -2.128368
  H 0.557333 0.490972 1.237664
  H 0.646222 -0.900962 0.153160
  H 0.655365 0.706791 -0.514410
  H 3.891706 1.415805 1.233192
  H 3.890633 -0.206081 1.887333
  H 1.783253 0.289444 3.138595
  H 1.784994 1.929846 2.478148
  H 2.523284 -0.662924 -1.590019
  H 5.150395 -0.068531 -0.107219
  H 4.879694 -2.356126 -3.506382
  H 4.882041 -0.742670 -4.148799
  H 6.953132 -0.553602 -1.324886
 23
 0.253930
  C 1.017564 -0.047220 0.396246
  C 2.483571 0.101091 0.373154
  C 3.227786 0.696996 1.508815
  C 2.405794 1.193822 2.690386
  H 3.070107 1.634198 3.430525
  C 3.145820 -0.338730 -0.767335
  C 4.526554 -0.463662 -0.906061
  C 5.183616 -0.908355 -2.048306
  C 4.545510 -1.172946 -3.355930
  H 3.480228 -0.984666 -3.356608
  O 6.480367 -1.116107 -2.043732
  H 0.584810 0.176922 1.360445
  H 0.749703 -1.062688 0.104210
  H 0.564222 0.611762 -0.349823
  H 3.825275 1.529895 1.122505
  H 3.949856 -0.041398 1.874052
  H 1.867399 0.381018 3.172872
  H 1.694698 1.958393 2.386063
  H 2.521351 -0.647751 -1.592149
  H 5.143957 -0.250260 -0.044570
  H 4.739640 -2.205194 -3.647972
  H 5.025053 -0.551924 -4.112945
  H 6.922227 -0.944147 -1.194642
 23
 1.988366
  C 1.045953 -0.174377 0.445533
  C 2.483899 0.142513 0.363717
  C 3.207908 0.825121 1.461387
  C 2.394845 1.217499 2.685735
  H 3.033864 1.746976 3.387796
  C 3.147762 -0.265774 -0.790254
  C 4.509916 -0.517034 -0.893816
  C 5.161181 -0.981411 -2.036031
  C 4.564542 -1.061858 -3.386039
  H 3.538224 -0.724734 -3.417333
  O 6.407724 -1.385259 -1.986638
  H 0.631099 0.001178 1.429543
  H 0.916908 -1.222223 0.169569
  H 0.478881 0.408999 -0.282368
  H 3.674312 1.724528 1.042286
  H 4.041344 0.192380 1.781512
  H 1.996060 0.343893 3.195253
  H 1.573636 1.878675 2.421806
  H 2.522626 -0.502224 -1.639822
  H 5.109787 -0.429138 0.002811
  H 4.631432 -2.086527 -3.750199
  H 5.163422 -0.460260 -4.069296
  H 6.824733 -1.329726 -1.104503
 23
 4.758420
  C 1.091727 -0.260270 0.486930
  C 2.487425 0.198940 0.353591
  C 3.182625 0.960414 1.407397
  C 2.403057 1.243217 2.682788
  H 3.011152 1.847193 3.350481
  C 3.155652 -0.186634 -0.813886
  C 4.490324 -0.558398 -0.886811
  C 5.137542 -1.033579 -2.026164
  C 4.604231 -0.950739 -3.401549
  H 3.623691 -0.493755 -3.447709
  O 6.315402 -1.601074 -1.950049
  H 0.685710 -0.091434 1.478454
  H 1.093850 -1.326512 0.257483
  H 0.441948 0.216872 -0.245941
  H 3.497933 1.911293 0.963981
  H 4.117233 0.449232 1.662057
  H 2.149642 0.323614 3.203943
  H 1.490497 1.796160 2.476794
  H 2.536414 -0.337927 -1.689665
  H 5.055355 -0.587111 0.036695
  H 4.574359 -1.947374 -3.841030
  H 5.298769 -0.372833 -4.010897
  H 6.688326 -1.653481 -1.051028
 23
 8.568205
  C 1.136213 -0.360320 0.536808
  C 2.473795 0.224233 0.340827
  C 3.159710 1.040258 1.364622
  C 2.424502 1.266772 2.678011
  H 3.014850 1.921765 3.313564
  C 3.141153 -0.127594 -0.841211
  C 4.431958 -0.626532 -0.886698
  C 5.102146 -1.070692 -2.023255
  C 4.647240 -0.855907 -3.413454
  H 3.702387 -0.331482 -3.469897
  O 6.222457 -1.743182 -1.930916
  H 0.762362 -0.215188 1.543044
  H 1.232580 -1.425247 0.317453
  H 0.407909 0.042585 -0.168665
  H 3.378473 2.011175 0.904046
  H 4.145783 0.606440 1.565898
  H 2.272697 0.332290 3.212650
  H 1.461160 1.743489 2.517247
  H 2.542391 -0.148471 -1.743517
  H 4.938665 -0.768801 0.060418
  H 4.574197 -1.815274 -3.924912
  H 5.406833 -0.284473 -3.946792
  H 6.542263 -1.876557 -1.023169
 23
 13.724686
  C 1.197994 -0.473887 0.615553
  C 2.479809 0.200917 0.361743
  C 3.134416 1.105728 1.324559
  C 2.436997 1.316773 2.660460
  H 2.996046 2.040989 3.248339
  C 3.134921 -0.106908 -0.849961
  C 4.368707 -0.708795 -0.899393
  C 5.059622 -1.111847 -2.039071
  C 4.686912 -0.748616 -3.425207
  H 3.783128 -0.158313 -3.472885
  O 6.128430 -1.885111 -1.955066
  H 0.855208 -0.345474 1.634030
  H 1.358688 -1.529105 0.398209
  H 0.414404 -0.129738 -0.061188
  H 3.252476 2.072073 0.821470
  H 4.162007 0.760449 1.492094
  H 2.385725 0.392917 3.231135
  H 1.431254 1.706256 2.525678
  H 2.582007 0.067145 -1.763996
  H 4.809444 -0.979387 0.052094
  H 4.572582 -1.653795 -4.019591
  H 5.504956 -0.189136 -3.876467
  H 6.391353 -2.120014 -1.041292
 23
 20.288713
  C 1.306837 -0.582626 0.691824
  C 2.515387 0.193689 0.396874
  C 3.108186 1.179464 1.322527
  C 2.405447 1.383456 2.657322
  H 2.916401 2.161525 3.218078
  C 3.180381 -0.064438 -0.843173
  C 4.326185 -0.810785 -0.925132
  C 5.026903 -1.151268 -2.081371
  C 4.683527 -0.694960 -3.447840
  H 3.798378 -0.074512 -3.469947
  O 6.072354 -1.954804 -2.031310
  H 1.017046 -0.514252 1.732138
  H 1.495094 -1.619961 0.414350
  H 0.463642 -0.249708 0.081833
  H 3.156561 2.135903 0.786223
  H 4.160865 0.913022 1.491951
  H 2.422159 0.478040 3.256789
  H 1.375855 1.696352 2.517857
  H 2.679933 0.276315 -1.744323
  H 4.706690 -1.214177 0.005123
  H 4.544427 -1.561691 -4.093238
  H 5.524285 -0.138119 -3.861550
  H 6.291872 -2.273244 -1.139866
 23
 27.367082
  C 1.455240 -0.695297 0.752313
  C 2.552086 0.214023 0.420459
  C 3.053672 1.270350 1.310867
  C 2.357846 1.424859 2.655819
  H 2.796447 2.260297 3.195116
  C 3.246131 -0.014736 -0.834287
  C 4.285557 -0.892345 -0.947779
  C 4.965481 -1.224471 -2.127814
  C 4.669390 -0.672178 -3.467921
  H 3.828923 0.009237 -3.463225
  O 5.952388 -2.102315 -2.115780
  H 1.163162 -0.639565 1.794389
  H 1.722524 -1.714991 0.471717
  H 0.580608 -0.452233 0.140440
  H 3.003095 2.221438 0.764379
  H 4.128894 1.107087 1.458942
  H 2.478753 0.534748 3.268634
  H 1.297393 1.627853 2.531809
  H 2.844829 0.482995 -1.707249
  H 4.632417 -1.369427 -0.039568
  H 4.474161 -1.490740 -4.159673
  H 5.551692 -0.156668 -3.846728
  H 6.154461 -2.465603 -1.234887
 23
 18.198140
  C 1.659327 -0.791755 0.854959
  C 2.658527 0.209511 0.466932
  C 3.008518 1.374317 1.300447
  C 2.260650 1.521560 2.617846
  H 2.588940 2.428460 3.118851
  C 3.351822 0.010141 -0.762720
  C 4.258492 -1.006592 -0.966507
  C 4.895656 -1.279563 -2.174241
  C 4.630723 -0.594783 -3.459485
  H 3.836920 0.137105 -3.393388
  O 5.825454 -2.211526 -2.255584
  H 1.396091 -0.754524 1.905887
  H 1.958295 -1.793707 0.551446
  H 0.754728 -0.591456 0.272666
  H 2.869924 2.286129 0.703497
  H 4.087623 1.332673 1.484200
  H 2.461041 0.685788 3.283448
  H 1.188604 1.597720 2.457891
  H 3.114204 0.686958 -1.572425
  H 4.537208 -1.604901 -0.109146
  H 4.376638 -1.338392 -4.213745
  H 5.546146 -0.112256 -3.802343
  H 6.015879 -2.662985 -1.414119
 23
 9.302066
  C 1.886158 -0.872492 0.963622
  C 2.773478 0.208271 0.506896
  C 2.960566 1.457933 1.272960
  C 2.168190 1.589211 2.563064
  H 2.369464 2.557879 3.012432
  C 3.475513 0.036472 -0.687918
  C 4.229113 -1.088585 -0.995540
  C 4.828365 -1.328887 -2.230262
  C 4.591601 -0.543169 -3.463023
  H 3.853459 0.236531 -3.333337
  O 5.673303 -2.324635 -2.396118
  H 1.686316 -0.852618 2.029205
  H 2.234414 -1.841974 0.629523
  H 0.929885 -0.734530 0.448378
  H 2.727630 2.308018 0.621275
  H 4.027884 1.555131 1.484400
  H 2.452833 0.826487 3.285366
  H 1.099830 1.520356 2.378800
  H 3.421581 0.838335 -1.409088
  H 4.432459 -1.782955 -0.191596
  H 4.269232 -1.217555 -4.254585
  H 5.532332 -0.108993 -3.797965
  H 5.845816 -2.847143 -1.593643
 23
 7.676709
  C 2.058533 -0.878074 0.952828
  C 2.872005 0.273244 0.521518
  C 2.926363 1.542070 1.284498
  C 2.076851 1.597529 2.547989
  H 2.143679 2.595135 2.988021
  C 3.654117 0.133145 -0.625426
  C 4.220123 -1.079705 -0.998610
  C 4.775707 -1.364221 -2.238747
  C 4.573562 -0.544263 -3.456020
  H 3.878205 0.277423 -3.298581
  O 5.464390 -2.461004 -2.448356
  H 1.837555 -0.903887 2.015477
  H 2.511660 -1.795242 0.570361
  H 1.108285 -0.822315 0.406823
  H 2.610293 2.354314 0.610353
  H 3.977283 1.728939 1.531459
  H 2.433165 0.890400 3.296907
  H 1.029300 1.386089 2.331776
  H 3.789367 0.999778 -1.263524
  H 4.410719 -1.790423 -0.198753
  H 4.212417 -1.180952 -4.257871
  H 5.531945 -0.154812 -3.786541
  H 5.634153 -2.995712 -1.650161
