 17
 0.000000
  C 0.980431 0.132784 0.381103
  C 2.439749 0.094033 0.285372
  H 3.027242 0.432065 1.127096
  C 3.080632 -0.358987 -0.843077
  C 4.469508 -0.408439 -0.966910
  C 5.180752 -0.856219 -2.083262
  C 4.605932 -1.361480 -3.342230
  H 3.525658 -1.372901 -3.370779
  O 6.489214 -0.851194 -2.071786
  H 0.633201 0.515893 1.334853
  H 0.566946 -0.865872 0.222930
  H 0.567459 0.745109 -0.423784
  H 2.470242 -0.691402 -1.670733
  H 5.048144 -0.067002 -0.116895
  H 4.990472 -2.366968 -3.520251
  H 4.990603 -0.758128 -4.165971
  H 6.896609 -0.521217 -1.248726
 17
 0.313763
  C 0.987535 0.170694 0.369886
  C 2.439491 0.048350 0.280630
  H 3.031073 0.325308 1.141132
  C 3.080484 -0.396700 -0.853758
  C 4.471782 -0.485434 -0.938260
  C 5.194588 -0.820658 -2.086387
  C 4.608972 -1.381347 -3.319185
  H 3.527763 -1.309233 -3.353414
  O 6.483486 -0.629726 -2.148238
  H 0.664777 0.557279 1.324738
  H 0.518463 -0.796967 0.194712
  H 0.609778 0.809819 -0.430166
  H 2.474987 -0.663720 -1.706815
  H 5.037133 -0.202939 -0.055478
  H 4.893262 -2.433007 -3.385418
  H 5.052346 -0.897392 -4.188557
  H 6.902117 -0.297440 -1.329653
 17
 4.123974
  C 1.000932 0.195406 0.365682
  C 2.452607 0.067350 0.264126
  H 3.063474 0.443901 1.084195
  C 3.073914 -0.434739 -0.854047
  C 4.451425 -0.682994 -0.897618
  C 5.166278 -0.822029 -2.094706
  C 4.623350 -1.406304 -3.329833
  H 3.547340 -1.395270 -3.371788
  O 6.417803 -0.442207 -2.171557
  H 0.695398 0.655304 1.304040
  H 0.534459 -0.790619 0.281191
  H 0.602095 0.776029 -0.465930
  H 2.460004 -0.685943 -1.689926
  H 5.016829 -0.544609 0.028105
  H 4.977271 -2.451104 -3.374697
  H 5.036761 -0.909890 -4.198996
  H 6.827934 -0.127347 -1.339253
 17
 14.041191
  C 1.036584 0.226785 0.393839
  C 2.492475 0.165360 0.190543
  H 3.115850 0.696234 0.882698
  C 3.068428 -0.469017 -0.883231
  C 4.409751 -0.898315 -0.881653
  C 5.119472 -0.833696 -2.080928
  C 4.665999 -1.420571 -3.343075
  H 3.596829 -1.586952 -3.369262
  O 6.303022 -0.277484 -2.142155
  H 0.775954 0.756354 1.301994
  H 0.618845 -0.784661 0.424773
  H 0.547877 0.716007 -0.448600
  H 2.389230 -0.810386 -1.664673
  H 4.949984 -0.818938 0.045342
  H 5.162635 -2.388568 -3.431078
  H 4.981919 -0.828810 -4.175904
  H 6.696183 -0.000159 -1.284480
 17
 30.562544
  C 1.116795 0.265895 0.389889
  C 2.556199 0.240211 0.077300
  H 3.206916 0.866067 0.667923
  C 3.080413 -0.491044 -0.958635
  C 4.360389 -1.099616 -0.836699
  C 5.027631 -0.821202 -2.038272
  C 4.685693 -1.442727 -3.332668
  H 3.661105 -1.791785 -3.381089
  O 6.118869 -0.119630 -2.080770
  H 0.905462 0.863757 1.269439
  H 0.757267 -0.752452 0.542096
  H 0.533741 0.653481 -0.449251
  H 2.356449 -0.865373 -1.671050
  H 4.836097 -1.192315 0.125619
  H 5.348337 -2.303351 -3.432904
  H 4.895489 -0.766638 -4.157810
  H 6.473908 0.190964 -1.221251
 17
 49.641450
  C 1.254110 0.283931 0.357336
  C 2.658383 0.271564 -0.069212
  H 3.340007 0.953452 0.416584
  C 3.127141 -0.549309 -1.091091
  C 4.322879 -1.308126 -0.767666
  C 4.874362 -0.808788 -1.955051
  C 4.649494 -1.436398 -3.286422
  H 3.676407 -1.903630 -3.379517
  O 5.874282 0.040215 -1.971111
  H 1.090029 0.949951 1.196763
  H 0.937775 -0.726833 0.619717
  H 0.596176 0.574908 -0.466451
  H 2.383710 -0.940652 -1.772336
  H 4.739349 -1.421083 0.214716
  H 5.415919 -2.203240 -3.390809
  H 4.789671 -0.705845 -4.079539
  H 6.186479 0.349450 -1.100182
 17
 58.398300
  C 1.418510 0.312548 0.338746
  C 2.763382 0.293175 -0.214241
  H 3.492167 0.988418 0.178592
  C 3.148940 -0.585099 -1.253862
  C 4.232338 -1.428779 -0.715469
  C 4.685070 -0.783178 -1.890858
  C 4.638014 -1.470244 -3.233760
  H 3.730540 -2.044723 -3.375894
  O 5.630505 0.181578 -1.869774
  H 1.319222 1.004897 1.167161
  H 1.123056 -0.690401 0.655233
  H 0.691332 0.564764 -0.439967
  H 2.381372 -0.993873 -1.896548
  H 4.591902 -1.599065 0.277700
  H 5.492143 -2.141375 -3.287025
  H 4.735478 -0.728697 -4.023069
  H 5.843486 0.522528 -0.984171
 17
 61.757546
  C 1.590777 0.255752 0.414765
  C 2.844040 0.312759 -0.329371
  H 3.613167 0.990419 0.012316
  C 3.063742 -0.466861 -1.505863
  C 3.954600 -1.351091 -0.727358
  C 4.543176 -0.733444 -1.918555
  C 4.695685 -1.527379 -3.195994
  H 3.797546 -2.084059 -3.435165
  O 5.544720 0.185600 -1.800723
  H 1.615772 0.864962 1.311759
  H 1.325734 -0.769431 0.679771
  H 0.773025 0.584604 -0.232528
  H 2.272761 -0.816716 -2.151510
  H 4.209043 -1.596404 0.279965
  H 5.525687 -2.220547 -3.082503
  H 4.932859 -0.843792 -4.006291
  H 5.616916 0.599995 -0.927673
 17
 58.120324
  C 1.663301 0.220660 0.423221
  C 2.911224 0.284108 -0.383068
  H 3.660255 0.995848 -0.065697
  C 3.010250 -0.373768 -1.658067
  C 3.760716 -1.193831 -0.696071
  C 4.478105 -0.690369 -1.943822
  C 4.697028 -1.590660 -3.130472
  H 3.801517 -2.147525 -3.385329
  O 5.506056 0.169999 -1.789310
  H 1.768256 0.761199 1.355778
  H 1.374222 -0.805697 0.638221
  H 0.838759 0.654561 -0.141798
  H 2.226933 -0.700977 -2.319986
  H 4.056002 -1.540795 0.268512
  H 5.502350 -2.290300 -2.906543
  H 5.010992 -0.986979 -3.979155
  H 5.523936 0.667168 -0.951051
 17
 52.431829
  C 1.690110 0.212251 0.426205
  C 2.971510 0.254087 -0.361176
  H 3.664383 1.030616 -0.058682
  C 3.021105 -0.310153 -1.709048
  C 3.686344 -1.122502 -0.666274
  C 4.461530 -0.654623 -1.971363
  C 4.701080 -1.629622 -3.084188
  H 3.807210 -2.193123 -3.326445
  O 5.504947 0.162409 -1.788084
  H 1.808501 0.713736 1.379926
  H 1.371567 -0.810619 0.606487
  H 0.893154 0.710593 -0.120960
  H 2.230113 -0.618703 -2.370858
  H 4.064292 -1.650152 0.180997
  H 5.494269 -2.319689 -2.796865
  H 5.048881 -1.092151 -3.963718
  H 5.465046 0.752787 -1.014114
 17
 50.217670
  C 1.711330 0.223513 0.430204
  C 3.008986 0.227697 -0.339705
  H 3.685487 1.024082 -0.046380
  C 3.029049 -0.292647 -1.711859
  C 3.684059 -1.129238 -0.673425
  C 4.459046 -0.648992 -1.993694
  C 4.713378 -1.656768 -3.069039
  H 3.815847 -2.207323 -3.326026
  O 5.508073 0.150985 -1.783846
  H 1.827783 0.730961 1.382495
  H 1.368101 -0.790136 0.617509
  H 0.936804 0.737879 -0.133889
  H 2.228590 -0.591389 -2.366490
  H 3.968435 -1.740965 0.153334
  H 5.479920 -2.356475 -2.737531
  H 5.105386 -1.153263 -3.950388
  H 5.395291 0.845474 -1.111298
 17
 47.699551
  C 1.728339 0.194694 0.448216
  C 3.016736 0.226425 -0.342358
  H 3.644259 1.077259 -0.095014
  C 3.019209 -0.308141 -1.719930
  C 3.707180 -1.093198 -0.660881
  C 4.457783 -0.616185 -2.015094
  C 4.741985 -1.658267 -3.046045
  H 3.855383 -2.228751 -3.298384
  O 5.483354 0.209200 -1.815438
  H 1.828371 0.758345 1.370336
  H 1.442997 -0.823891 0.695774
  H 0.923349 0.638261 -0.132779
  H 2.221610 -0.647873 -2.357195
  H 3.904656 -1.792902 0.120754
  H 5.509384 -2.338031 -2.675533
  H 5.148332 -1.184925 -3.937784
  H 5.323285 0.960189 -1.216106
 17
 44.182124
  C 1.753580 0.168063 0.475003
  C 3.046095 0.206633 -0.311824
  H 3.659744 1.067950 -0.065955
  C 3.040568 -0.300679 -1.718946
  C 3.700667 -1.090544 -0.642103
  C 4.469391 -0.598249 -2.016436
  C 4.746392 -1.644165 -3.043925
  H 3.844778 -2.166809 -3.342625
  O 5.503576 0.203258 -1.792970
  H 1.827770 0.775737 1.371209
  H 1.498510 -0.846887 0.766803
  H 0.941733 0.560290 -0.133319
  H 2.238412 -0.621534 -2.359270
  H 3.814778 -1.951310 -0.020398
  H 5.460413 -2.367241 -2.648028
  H 5.219669 -1.185519 -3.910045
  H 5.338974 0.971540 -1.216423
 17
 43.817145
  C 1.767334 0.152006 0.495187
  C 3.081972 0.158719 -0.260301
  H 3.722037 0.994323 0.019989
  C 3.077608 -0.310708 -1.692262
  C 3.684941 -1.131881 -0.623292
  C 4.502404 -0.600629 -2.010628
  C 4.779429 -1.615686 -3.064882
  H 3.864972 -2.018558 -3.486345
  O 5.543482 0.168771 -1.731903
  H 1.796423 0.847852 1.324081
  H 1.543002 -0.834779 0.887246
  H 0.957236 0.446431 -0.165694
  H 2.248290 -0.562757 -2.331290
  H 3.866270 -2.070022 -0.148667
  H 5.364906 -2.434931 -2.646672
  H 5.389771 -1.170122 -3.843331
  H 5.376237 0.936608 -1.154381
 17
 42.203604
  C 1.788405 0.150795 0.504916
  C 3.090880 0.167349 -0.267482
  H 3.719618 1.011242 -0.003457
  C 3.081233 -0.306840 -1.705338
  C 3.687030 -1.128430 -0.619851
  C 4.496068 -0.580571 -2.017285
  C 4.799763 -1.630545 -3.030042
  H 3.902305 -2.133712 -3.372754
  O 5.524570 0.205585 -1.747946
  H 1.867745 0.739060 1.413320
  H 1.495922 -0.861171 0.770133
  H 1.001783 0.580755 -0.112233
  H 2.252640 -0.567947 -2.337500
  H 3.711334 -2.126410 -0.240008
  H 5.479578 -2.368325 -2.602192
  H 5.323907 -1.182269 -3.872434
  H 5.343535 0.986070 -1.192991
