8

H -0.6382281843378044 -0.8069122705335222 0.752797580005279
C -0.236225 -0.940215 0.79792
C 0.813054 -0.0768 0.107014
H 1.2356027973725072 -0.23778272435661046 0.17725043001201035
H -0.010482 -0.993169 1.869956
H -0.172772 -1.963357 0.40698
H 0.61 -0.055088 -0.966369
H 0.752921 0.944151 0.489733
