 17
 0.000000
  H 1.426681 0.188031 0.519236
  C 2.491345 0.133409 0.383342
  H 3.128162 0.457341 1.189206
  C 3.008188 -0.337360 -0.788637
  C 4.395220 -0.415437 -0.983399
  C 5.113878 -0.864225 -2.102818
  C 4.627006 -1.384727 -3.400834
  C 3.143251 -1.504796 -3.700374
  H 3.025281 -1.906623 -4.702318
  O 6.420705 -0.844444 -2.053741
  H 2.330583 -0.648821 -1.564320
  H 4.992851 -0.077532 -0.141272
  H 5.099467 -2.367143 -3.525710
  H 5.099674 -0.761045 -4.170036
  H 2.650696 -0.536656 -3.672490
  H 2.650662 -2.185367 -3.011298
  H 6.793478 -0.508577 -1.214083
 17
 1.439353
  H 1.419198 0.115057 0.560038
  C 2.475251 0.159335 0.360475
  H 3.087182 0.704017 1.060518
  C 3.008917 -0.443544 -0.738812
  C 4.384519 -0.389970 -0.988949
  C 5.112700 -0.865018 -2.089943
  C 4.625366 -1.366787 -3.395401
  C 3.141723 -1.440628 -3.707660
  H 3.023037 -1.773859 -4.734260
  O 6.419416 -0.779938 -2.061525
  H 2.355445 -0.977602 -1.405719
  H 4.972333 0.137480 -0.243449
  H 5.074164 -2.360730 -3.523179
  H 5.130004 -0.758445 -4.157366
  H 2.664175 -0.468479 -3.619579
  H 2.633177 -2.160896 -3.073596
  H 6.835798 -0.756327 -1.177478
 17
 6.820417
  H 1.390633 0.119725 0.565729
  C 2.445011 0.179288 0.359098
  H 3.050756 0.744808 1.048641
  C 2.985402 -0.430872 -0.731601
  C 4.364860 -0.354257 -0.986029
  C 5.102045 -0.819225 -2.080153
  C 4.630577 -1.329200 -3.381678
  C 3.151752 -1.443315 -3.697549
  H 3.042389 -1.788295 -4.722601
  O 6.414997 -0.649158 -2.049305
  H 2.340551 -0.987516 -1.389739
  H 4.950640 0.197182 -0.258868
  H 5.108670 -2.309313 -3.514327
  H 5.124643 -0.708680 -4.142811
  H 2.648777 -0.483182 -3.618023
  H 2.660207 -2.168992 -3.056229
  H 6.912475 -1.042838 -1.311834
 17
 11.400558
  H 1.355418 0.148919 0.561367
  C 2.414928 0.182967 0.374741
  H 3.028545 0.683037 1.106759
  C 2.953159 -0.376393 -0.744054
  C 4.339106 -0.325218 -0.973126
  C 5.090261 -0.772846 -2.063388
  C 4.646534 -1.313317 -3.358276
  C 3.174650 -1.482586 -3.679851
  H 3.080959 -1.855095 -4.696867
  O 6.405535 -0.555478 -1.980082
  H 2.301986 -0.867402 -1.446970
  H 4.938787 0.148568 -0.202785
  H 5.157436 -2.277180 -3.491738
  H 5.120502 -0.678272 -4.121744
  H 2.641043 -0.537408 -3.624992
  H 2.703187 -2.207708 -3.022169
  H 6.977986 -1.234677 -1.592265
 17
 8.165036
  H 1.319111 0.194575 0.549393
  C 2.383149 0.198879 0.387383
  H 2.996783 0.652526 1.148893
  C 2.927745 -0.330368 -0.743268
  C 4.317189 -0.305589 -0.944912
  C 5.086488 -0.740443 -2.032118
  C 4.669385 -1.307066 -3.328625
  C 3.199207 -1.496717 -3.655372
  H 3.114616 -1.881568 -4.668610
  O 6.384779 -0.523523 -1.875185
  H 2.277263 -0.772085 -1.479036
  H 4.927203 0.067160 -0.127105
  H 5.186051 -2.267844 -3.458369
  H 5.129827 -0.661994 -4.090822
  H 2.655945 -0.556987 -3.612239
  H 2.733283 -2.221401 -2.993096
  H 7.011037 -1.264990 -1.927637
 17
 1.806127
  H 1.283408 0.205830 0.503540
  C 2.348445 0.225708 0.352585
  H 2.935517 0.804126 1.048405
  C 2.928130 -0.427475 -0.699439
  C 4.322694 -0.384623 -0.891643
  C 5.105717 -0.821304 -1.972180
  C 4.696674 -1.345243 -3.304048
  C 3.224822 -1.478439 -3.655171
  H 3.144074 -1.813133 -4.690206
  O 6.390364 -0.641847 -1.758291
  H 2.300444 -0.984620 -1.375661
  H 4.925715 0.001040 -0.064640
  H 5.175824 -2.324647 -3.450422
  H 5.173539 -0.683625 -4.044128
  H 2.707279 -0.527962 -3.571193
  H 2.732384 -2.222566 -3.038299
  H 7.014633 -1.144772 -2.327600
 17
 7.761472
  H 1.248964 0.108785 0.342971
  C 2.297848 0.245498 0.148257
  H 2.752695 1.157021 0.501499
  C 3.001116 -0.657430 -0.576198
  C 4.368380 -0.478939 -0.868314
  C 5.132267 -0.882001 -1.972131
  C 4.688220 -1.274641 -3.325264
  C 3.194348 -1.331245 -3.594907
  H 3.030572 -1.601000 -4.635293
  O 6.417870 -0.689846 -1.757145
  H 2.505921 -1.547573 -0.934811
  H 5.031174 -0.050546 -0.115410
  H 5.118854 -2.255245 -3.565358
  H 5.164613 -0.569600 -4.017260
  H 2.722838 -0.367684 -3.416169
  H 2.705232 -2.080455 -2.980727
  H 7.060424 -1.291657 -2.178897
 17
 18.191570
  H 1.240669 0.075041 0.352805
  C 2.274795 0.244288 0.121399
  H 2.700674 1.187318 0.419063
  C 2.997918 -0.672969 -0.551695
  C 4.348528 -0.442128 -0.921156
  C 5.120236 -0.856030 -2.018435
  C 4.696737 -1.286583 -3.366928
  C 3.201698 -1.275508 -3.615844
  H 3.003345 -1.594014 -4.637557
  O 6.398336 -0.645375 -1.757462
  H 2.580497 -1.651259 -0.749541
  H 5.136243 -0.153743 -0.210890
  H 5.085730 -2.288568 -3.583096
  H 5.192444 -0.615320 -4.073805
  H 2.780594 -0.285037 -3.464606
  H 2.689927 -1.976870 -2.957833
  H 7.049948 -1.337125 -1.947905
 17
 39.611841
  H 1.340985 0.189810 0.636048
  C 2.319833 0.321294 0.218320
  H 2.752894 1.303543 0.274519
  C 2.961377 -0.703975 -0.391094
  C 4.224604 -0.570317 -0.971782
  C 5.012652 -0.903855 -2.044790
  C 4.731047 -1.223183 -3.439256
  C 3.240126 -1.302562 -3.762775
  H 3.100055 -1.620063 -4.792527
  O 6.285346 -0.677438 -1.634659
  H 2.512122 -1.688938 -0.399868
  H 5.218134 -0.271041 -0.422592
  H 5.196635 -2.199342 -3.649504
  H 5.238878 -0.525241 -4.116096
  H 2.775775 -0.324236 -3.654564
  H 2.729318 -2.000785 -3.104467
  H 6.938010 -1.390116 -1.739690
 17
 58.781063
  H 1.393248 0.275074 0.787952
  C 2.348665 0.371395 0.305361
  H 2.837828 1.328024 0.370798
  C 2.895248 -0.668658 -0.373395
  C 4.098008 -0.605786 -1.051686
  C 4.906739 -0.898218 -2.048164
  C 4.740548 -1.268638 -3.471951
  C 3.271672 -1.364778 -3.870143
  H 3.189233 -1.681567 -4.905273
  O 6.217245 -0.606699 -1.546021
  H 2.406307 -1.637394 -0.339637
  H 5.479038 -0.265214 -0.553191
  H 5.224817 -2.235879 -3.635708
  H 5.253703 -0.532519 -4.096379
  H 2.780197 -0.401307 -3.768276
  H 2.749678 -2.087487 -3.250200
  H 6.885828 -1.325491 -1.595391
 17
 50.555447
  H 1.394490 0.282735 0.815265
  C 2.322685 0.378014 0.285911
  H 2.771147 1.355225 0.253462
  C 2.888394 -0.693531 -0.333601
  C 4.038776 -0.649151 -1.062848
  C 4.863018 -0.907047 -2.029146
  C 4.736587 -1.248218 -3.464002
  C 3.278091 -1.336959 -3.903960
  H 3.225226 -1.630710 -4.946608
  O 6.230946 -0.622414 -1.501774
  H 2.449539 -1.673227 -0.190621
  H 5.736545 -0.342396 -0.642700
  H 5.236525 -2.205716 -3.648006
  H 5.259804 -0.492122 -4.059146
  H 2.782915 -0.377372 -3.795042
  H 2.739056 -2.073716 -3.314058
  H 6.845069 -1.392453 -1.563963
 17
 44.607739
  H 1.405289 0.305597 0.849477
  C 2.319424 0.394436 0.296255
  H 2.784419 1.365987 0.266323
  C 2.863990 -0.685623 -0.337312
  C 4.004445 -0.660215 -1.088620
  C 4.858789 -0.900022 -2.030587
  C 4.752107 -1.238105 -3.477534
  C 3.294941 -1.372708 -3.913614
  H 3.246928 -1.671934 -4.954562
  O 6.241491 -0.621088 -1.526075
  H 2.403693 -1.656582 -0.203099
  H 5.832925 -0.324243 -0.637272
  H 5.269854 -2.186866 -3.651307
  H 5.250048 -0.462056 -4.062976
  H 2.770023 -0.429156 -3.805058
  H 2.780749 -2.124062 -3.318623
  H 6.856882 -1.389747 -1.578037
 17
 37.978509
  H 1.372285 0.304538 0.827450
  C 2.267612 0.393070 0.240701
  H 2.674257 1.379597 0.106788
  C 2.859112 -0.712315 -0.313825
  C 3.984823 -0.694339 -1.086001
  C 4.871365 -0.908372 -2.000581
  C 4.755834 -1.219288 -3.455885
  C 3.302151 -1.357708 -3.890510
  H 3.253565 -1.631387 -4.940306
  O 6.275849 -0.649811 -1.576202
  H 2.444299 -1.692539 -0.096592
  H 6.091409 -0.330223 -0.663203
  H 5.279798 -2.156561 -3.654831
  H 5.242423 -0.425107 -4.026114
  H 2.767094 -0.421970 -3.755650
  H 2.797492 -2.127990 -3.313541
  H 6.864916 -1.436626 -1.657429
 17
 36.450697
  H 1.314939 0.297498 0.739249
  C 2.247808 0.374381 0.212781
  H 2.696545 1.348287 0.146527
  C 2.823279 -0.721514 -0.360993
  C 3.995646 -0.713726 -1.056364
  C 4.891099 -0.923390 -1.957600
  C 4.738854 -1.219310 -3.420351
  C 3.283289 -1.365085 -3.831676
  H 3.219112 -1.574928 -4.894860
  O 6.304398 -0.657790 -1.633118
  H 2.361035 -1.693878 -0.212577
  H 6.336286 -0.187959 -0.767534
  H 5.267938 -2.146036 -3.645910
  H 5.204543 -0.411835 -3.987277
  H 2.730921 -0.452975 -3.629289
  H 2.807920 -2.180724 -3.293735
  H 6.880672 -1.458045 -1.663003
 17
 34.100634
  H 1.292388 0.288672 0.639026
  C 2.182595 0.345382 0.043048
  H 2.484769 1.315291 -0.309009
  C 2.889924 -0.783082 -0.276163
  C 4.022915 -0.793752 -1.013966
  C 4.912942 -0.940008 -1.932745
  C 4.727894 -1.175184 -3.404532
  C 3.259535 -1.274264 -3.794790
  H 3.171011 -1.426494 -4.866332
  O 6.347773 -0.756287 -1.630692
  H 2.564529 -1.738223 0.123339
  H 6.470694 -0.217842 -0.815084
  H 5.236600 -2.096715 -3.685309
  H 5.199527 -0.347796 -3.941047
  H 2.727496 -0.366464 -3.533975
  H 2.779379 -2.108059 -3.290091
  H 6.834313 -1.612207 -1.567407
