 23
 0.000000
  C 0.999132 0.128035 0.369612
  C 2.469404 0.144110 0.410569
  C 3.224889 0.618508 1.590681
  C 2.425150 1.103464 2.796369
  C 3.363169 1.551817 3.913314
  C 3.139764 -0.310150 -0.718797
  C 4.524575 -0.375732 -0.883735
  C 5.094224 -0.843064 -2.048275
  H 4.487178 -1.178032 -2.880219
  O 6.370255 -0.928446 -2.264723
  H 0.540751 0.494204 1.279639
  H 0.645662 -0.885984 0.174875
  H 0.646223 0.725196 -0.472958
  H 3.885602 1.430509 1.268178
  H 3.885082 -0.191182 1.920147
  H 1.787972 0.302706 3.175598
  H 1.788756 1.944469 2.515804
  H 3.998275 0.732238 4.241980
  H 2.792179 1.896969 4.771626
  H 3.999075 2.370276 3.583739
  H 2.536711 -0.645264 -1.551804
  H 5.204583 -0.062308 -0.104967
  H 6.918505 -0.624577 -1.512619
 23
 2.264503
  C 1.009646 0.154744 0.363793
  C 2.480639 0.156331 0.415456
  C 3.225604 0.620532 1.604598
  C 2.416951 1.091771 2.808707
  C 3.345526 1.525328 3.938547
  C 3.155387 -0.302060 -0.713167
  C 4.541859 -0.383570 -0.869314
  C 5.104626 -0.920479 -2.005026
  H 4.484861 -1.401321 -2.757952
  O 6.377948 -1.034525 -2.238001
  H 0.545810 0.514703 1.275021
  H 0.648214 -0.852564 0.151006
  H 0.669979 0.763802 -0.475567
  H 3.891528 1.435150 1.296284
  H 3.891138 -0.187116 1.930961
  H 1.776468 0.286799 3.172440
  H 1.784813 1.937399 2.532619
  H 3.975805 0.701011 4.263597
  H 2.767594 1.861793 4.794823
  H 3.985829 2.345505 3.624162
  H 2.551814 -0.621531 -1.552416
  H 5.196832 -0.084423 -0.065783
  H 6.931615 -0.362930 -1.790185
 23
 8.456679
  C 1.003671 0.175742 0.359265
  C 2.472859 0.175836 0.415086
  C 3.215268 0.627710 1.608824
  C 2.406687 1.088548 2.816919
  C 3.334686 1.509044 3.952881
  C 3.150890 -0.278396 -0.714005
  C 4.538169 -0.368733 -0.860147
  C 5.123177 -0.967882 -1.950331
  H 4.528713 -1.523390 -2.670552
  O 6.422748 -1.092660 -2.108027
  H 0.537690 0.519668 1.273784
  H 0.641492 -0.827100 0.125827
  H 0.667478 0.799640 -0.471379
  H 3.884788 1.442305 1.307807
  H 3.881823 -0.182715 1.927130
  H 1.763967 0.281222 3.171871
  H 1.776208 1.937843 2.548592
  H 3.959184 0.678665 4.274546
  H 2.755776 1.843541 4.810064
  H 3.981545 2.327817 3.646125
  H 2.552141 -0.590354 -1.559467
  H 5.203971 -0.024365 -0.083808
  H 6.936928 -0.266234 -2.122160
 23
 13.058470
  C 1.000738 0.182427 0.355100
  C 2.467605 0.182721 0.418320
  C 3.204541 0.632862 1.613181
  C 2.395110 1.094887 2.819008
  C 3.320040 1.511558 3.958732
  C 3.152748 -0.275748 -0.705661
  C 4.540984 -0.365094 -0.842365
  C 5.142502 -0.955877 -1.923047
  H 4.562596 -1.468337 -2.688356
  O 6.460509 -1.078594 -2.007116
  H 0.530231 0.517770 1.270472
  H 0.640136 -0.818732 0.110158
  H 0.668679 0.811662 -0.473352
  H 3.879489 1.444068 1.313272
  H 3.870948 -0.178025 1.931359
  H 1.749260 0.289177 3.172049
  H 1.767116 1.945805 2.548974
  H 3.939125 0.678597 4.283531
  H 2.738372 1.849941 4.812348
  H 3.972667 2.327315 3.655480
  H 2.560754 -0.595806 -1.553083
  H 5.212647 0.011950 -0.085713
  H 6.952693 -0.346344 -2.408480
 23
 10.263509
  C 1.014381 0.169996 0.372586
  C 2.476120 0.146821 0.443491
  C 3.204492 0.611476 1.625754
  C 2.384669 1.120064 2.809714
  C 3.302060 1.546749 3.955232
  C 3.156408 -0.338416 -0.648360
  C 4.547560 -0.431089 -0.774201
  C 5.165331 -0.847635 -1.930868
  H 4.606448 -1.053982 -2.835743
  O 6.460392 -1.025842 -1.951003
  H 0.544653 0.536656 1.280618
  H 0.642124 -0.825750 0.154651
  H 0.696092 0.782342 -0.473875
  H 3.897244 1.400213 1.313553
  H 3.852383 -0.205697 1.970947
  H 1.717436 0.333707 3.173678
  H 1.778982 1.973312 2.510398
  H 3.903222 0.706677 4.309401
  H 2.713277 1.919219 4.795000
  H 3.971134 2.337992 3.644539
  H 2.568558 -0.684923 -1.486674
  H 5.222139 -0.114590 0.013980
  H 6.948606 -0.528233 -2.595241
 23
 8.192445
  C 0.985855 0.190862 0.355184
  C 2.456479 0.226796 0.406251
  C 3.193634 0.663189 1.608690
  C 2.380656 1.052809 2.838886
  C 3.303753 1.466129 3.981579
  C 3.148006 -0.194922 -0.728024
  C 4.540748 -0.227740 -0.869914
  C 5.200068 -0.949109 -1.837585
  H 4.693344 -1.627274 -2.515222
  O 6.512660 -0.903481 -1.842421
  H 0.516648 0.471874 1.289911
  H 0.645742 -0.804304 0.068093
  H 0.632330 0.853105 -0.438095
  H 3.825646 1.512852 1.322739
  H 3.900400 -0.125475 1.891465
  H 1.770861 0.210373 3.170522
  H 1.718067 1.887314 2.605943
  H 3.956081 0.645408 4.272576
  H 2.721190 1.756612 4.852657
  H 3.922978 2.312450 3.696230
  H 2.563289 -0.517624 -1.580028
  H 5.214012 0.376520 -0.274706
  H 6.942218 -0.885267 -2.717384
 23
 16.599276
  C 0.923446 0.224639 0.359741
  C 2.394442 0.255550 0.359929
  C 3.180083 0.659307 1.543691
  C 2.417412 1.011462 2.815914
  C 3.385023 1.394851 3.931786
  C 3.047109 -0.143910 -0.797651
  C 4.439686 -0.175202 -0.962239
  C 5.227879 -1.034665 -1.676613
  H 4.936373 -1.995562 -2.083806
  O 6.514794 -0.714039 -1.657437
  H 0.490071 0.484508 1.317175
  H 0.567532 -0.763036 0.063089
  H 0.545303 0.906217 -0.405226
  H 3.795662 1.519667 1.252059
  H 3.898785 -0.133987 1.775555
  H 1.821627 0.159485 3.147668
  H 1.746303 1.852533 2.633154
  H 4.050636 0.569099 4.172461
  H 2.837946 1.658264 4.833571
  H 3.990098 2.252012 3.645412
  H 2.444046 -0.411201 -1.655826
  H 5.137179 0.575762 -0.592022
  H 6.986684 -0.777703 -2.505799
 23
 30.712843
  C 0.877660 0.267767 0.357040
  C 2.349005 0.257768 0.331476
  C 3.170776 0.639774 1.498722
  C 2.444103 0.985318 2.793554
  C 3.443244 1.342039 3.890278
  C 2.972420 -0.154094 -0.836231
  C 4.364256 -0.221894 -1.014873
  C 5.268135 -1.104327 -1.512330
  H 5.193223 -2.168575 -1.684160
  O 6.486345 -0.532636 -1.560496
  H 0.470101 0.532104 1.324788
  H 0.486556 -0.706369 0.060217
  H 0.506138 0.969350 -0.393017
  H 3.791372 1.494957 1.203918
  H 3.879359 -0.170217 1.703255
  H 1.845436 0.136291 3.128292
  H 1.778257 1.836220 2.638823
  H 4.099606 0.502615 4.108099
  H 2.921608 1.605401 4.807029
  H 4.056501 2.191019 3.597396
  H 2.353545 -0.374498 -1.697464
  H 5.114407 0.595434 -0.882517
  H 6.957942 -0.574414 -2.409657
 23
 52.689098
  C 0.847908 0.308767 0.356162
  C 2.318583 0.234264 0.320777
  C 3.167635 0.599888 1.476604
  C 2.464095 0.990415 2.772827
  C 3.486130 1.316992 3.857895
  C 2.916147 -0.218876 -0.845636
  C 4.285118 -0.353279 -1.035868
  C 5.281418 -1.147492 -1.441125
  H 5.383546 -2.212882 -1.559429
  O 6.421551 -0.373430 -1.487660
  H 0.462466 0.605372 1.323737
  H 0.412376 -0.652940 0.081606
  H 0.500132 1.019149 -0.396456
  H 3.818072 1.428227 1.173610
  H 3.839441 -0.240173 1.684455
  H 1.833479 0.170571 3.121343
  H 1.832546 1.866020 2.613044
  H 4.107865 0.452604 4.079762
  H 2.983721 1.612954 4.775501
  H 4.132187 2.135623 3.549408
  H 2.281913 -0.406385 -1.704911
  H 5.233153 0.515714 -0.999823
  H 6.889551 -0.333754 -2.343023
 23
 64.956736
  C 0.820842 0.342138 0.348327
  C 2.294995 0.220184 0.313157
  C 3.159744 0.571805 1.471459
  C 2.465056 0.995509 2.762662
  C 3.494594 1.299428 3.847030
  C 2.878618 -0.259740 -0.845538
  C 4.224114 -0.438789 -1.040705
  C 5.258628 -1.159696 -1.395893
  H 5.447637 -2.213260 -1.485202
  O 6.379924 -0.273585 -1.444079
  H 0.447725 0.660249 1.313933
  H 0.355490 -0.608862 0.087345
  H 0.493084 1.058771 -0.406668
  H 3.834454 1.378778 1.166241
  H 3.803038 -0.288314 1.688091
  H 1.808082 0.198632 3.116270
  H 1.861227 1.888799 2.593310
  H 4.087652 0.417028 4.077024
  H 2.999890 1.619490 4.760954
  H 4.166998 2.094360 3.532458
  H 2.239141 -0.427899 -1.705779
  H 5.439475 0.502821 -1.063210
  H 6.839396 -0.215876 -2.309553
 23
 58.427316
  C 0.811763 0.358202 0.341214
  C 2.287880 0.214440 0.304653
  C 3.160963 0.549039 1.467046
  C 2.472533 0.997141 2.752828
  C 3.504905 1.282237 3.839664
  C 2.864470 -0.280908 -0.852304
  C 4.194548 -0.490257 -1.049136
  C 5.254341 -1.167533 -1.373689
  H 5.488918 -2.213071 -1.435743
  O 6.380555 -0.225230 -1.436338
  H 0.445591 0.684758 1.306791
  H 0.331925 -0.587158 0.085362
  H 0.491314 1.078050 -0.414225
  H 3.857681 1.337159 1.161944
  H 3.779641 -0.327336 1.691542
  H 1.794808 0.218373 3.108156
  H 1.891210 1.903984 2.575688
  H 4.074979 0.386583 4.076694
  H 3.014500 1.619017 4.749991
  H 4.197686 2.058717 3.523184
  H 2.222353 -0.432904 -1.713708
  H 5.645251 0.486638 -1.110465
  H 6.821496 -0.168033 -2.315547
 23
 48.842956
  C 0.802567 0.402871 0.327165
  C 2.275192 0.212941 0.308265
  C 3.151591 0.542016 1.471825
  C 2.460991 0.985106 2.758509
  C 3.489368 1.259487 3.851740
  C 2.850300 -0.310274 -0.842661
  C 4.166772 -0.538016 -1.041036
  C 5.268926 -1.145680 -1.314707
  H 5.550551 -2.182061 -1.299540
  O 6.415718 -0.221093 -1.506110
  H 0.437893 0.744866 1.287930
  H 0.296133 -0.529188 0.073941
  H 0.509809 1.129863 -0.432402
  H 3.849144 1.331284 1.171237
  H 3.767495 -0.336489 1.694266
  H 1.777446 0.207441 3.105466
  H 1.884927 1.895846 2.583589
  H 4.054735 0.360030 4.085461
  H 2.996243 1.593871 4.761592
  H 4.186510 2.034879 3.542128
  H 2.205159 -0.479141 -1.698072
  H 5.855389 0.574033 -1.319798
  H 6.844635 -0.292395 -2.391156
 23
 43.899480
  C 0.798051 0.435855 0.308381
  C 2.269891 0.236443 0.306458
  C 3.134809 0.534199 1.487176
  C 2.431530 0.971869 2.769061
  C 3.445970 1.212789 3.882807
  C 2.857275 -0.272224 -0.844395
  C 4.172495 -0.502752 -1.033979
  C 5.303821 -1.099910 -1.235460
  H 5.605328 -2.118639 -1.059829
  O 6.461482 -0.254080 -1.618532
  H 0.426498 0.781215 1.265756
  H 0.288468 -0.494641 0.054173
  H 0.515542 1.164429 -0.453924
  H 3.847179 1.317797 1.206462
  H 3.734068 -0.356775 1.705990
  H 1.729205 0.201093 3.093066
  H 1.873277 1.894373 2.597740
  H 4.000567 0.303390 4.103445
  H 2.942645 1.530363 4.793063
  H 4.153745 1.988887 3.600187
  H 2.220578 -0.437245 -1.705943
  H 6.078323 0.648599 -1.521383
  H 6.806747 -0.444838 -2.522692
 23
 43.584989
  C 0.767855 0.355789 0.342233
  C 2.248347 0.231820 0.303187
  C 3.122483 0.554168 1.471746
  C 2.428081 0.978216 2.762895
  C 3.453828 1.262613 3.855933
  C 2.833172 -0.229012 -0.864981
  C 4.156372 -0.389445 -1.083593
  C 5.247448 -1.035596 -1.316290
  H 5.423716 -2.098630 -1.228065
  O 6.520155 -0.355038 -1.549514
  H 0.404269 0.698080 1.303741
  H 0.300936 -0.604616 0.118722
  H 0.428477 1.054605 -0.424228
  H 3.809620 1.354156 1.175848
  H 3.744633 -0.322310 1.684702
  H 1.758276 0.187039 3.105912
  H 1.835798 1.879820 2.594446
  H 4.048146 0.376498 4.067569
  H 2.956127 1.562729 4.775158
  H 4.124243 2.065453 3.557516
  H 2.186508 -0.398521 -1.719004
  H 6.432426 0.590008 -1.291174
  H 6.866578 -0.477628 -2.465128
 23
 41.401647
  C 0.793591 0.461381 0.295111
  C 2.260911 0.228809 0.308353
  C 3.125101 0.530060 1.488097
  C 2.418433 0.961213 2.771076
  C 3.429389 1.194193 3.889392
  C 2.843641 -0.311676 -0.831711
  C 4.145794 -0.587295 -1.005838
  C 5.343905 -1.027184 -1.143443
  H 5.735762 -1.994774 -0.871927
  O 6.445601 -0.202758 -1.678334
  H 0.429244 0.865448 1.231783
  H 0.264212 -0.471684 0.093468
  H 0.525704 1.152623 -0.506882
  H 3.835585 1.317119 1.209739
  H 3.728730 -0.359007 1.704528
  H 1.714022 0.188925 3.086885
  H 1.861488 1.885637 2.604548
  H 3.989508 0.285288 4.098950
  H 2.923003 1.496902 4.802448
  H 4.133049 1.978143 3.617191
  H 2.199691 -0.520353 -1.677006
  H 6.172045 0.738126 -1.777240
  H 6.779085 -0.568938 -2.531558
