 25
 0.000000
  C 0.999905 0.160886 0.451908
  C 2.471460 0.142074 0.404289
  C 3.254565 0.606363 1.559229
  H 2.635612 0.937750 2.384632
  C 3.063151 -0.327892 -0.765776
  C 4.442869 -0.419159 -0.993873
  C 5.088600 -0.871369 -2.120574
  C 4.608812 -1.388339 -3.409054
  C 3.123984 -1.513224 -3.721697
  C 2.921471 -2.076805 -5.126433
  H 6.170823 -0.855776 -2.081638
  H 0.617265 0.539652 1.394692
  H 0.605721 -0.843708 0.290600
  H 0.605231 0.774377 -0.359560
  H 3.911649 1.425020 1.259412
  H 3.912194 -0.191723 1.909050
  H 2.389890 -0.641694 -1.546345
  H 5.084456 -0.094243 -0.184853
  H 5.079791 -2.372861 -3.537613
  H 5.080583 -0.766278 -4.182478
  H 2.644881 -0.534224 -3.672755
  H 2.644273 -2.186570 -3.009765
  H 3.367865 -1.427657 -5.876318
  H 1.860929 -2.165418 -5.348253
  H 3.367361 -3.064496 -5.219545
 25
 12.685276
  C 1.046037 0.220183 0.600344
  C 2.501974 0.115342 0.338085
  C 3.372561 0.558823 1.440021
  H 2.778251 0.895294 2.277968
  C 2.847159 -0.377459 -0.888213
  C 4.189408 -0.406487 -0.962109
  C 4.972031 -0.847718 -2.061388
  C 4.602358 -1.371590 -3.366725
  C 3.137119 -1.533222 -3.771595
  C 3.032652 -2.101004 -5.187483
  H 6.042982 -0.792155 -1.922929
  H 0.809328 0.613911 1.580037
  H 0.580301 -0.756413 0.492548
  H 0.579757 0.850263 -0.153295
  H 4.017707 1.377249 1.133164
  H 4.018824 -0.243504 1.784812
  H 2.141442 -0.675832 -1.629754
  H 4.791154 -0.076843 -0.141943
  H 5.114844 -2.343372 -3.469582
  H 5.115626 -0.741141 -4.112773
  H 2.633342 -0.566234 -3.749898
  H 2.632386 -2.216610 -3.087879
  H 3.508147 -1.440924 -5.909311
  H 1.990377 -2.215392 -5.474463
  H 3.507096 -3.077529 -5.253112
 25
 45.079249
  C 1.098718 0.251150 0.677456
  C 2.544658 0.094185 0.285731
  C 3.451338 0.533671 1.376993
  H 2.863822 0.876318 2.230474
  C 2.687916 -0.409123 -0.966058
  C 4.001491 -0.396575 -0.937172
  C 4.896490 -0.834022 -2.027240
  C 4.595436 -1.365607 -3.351719
  C 3.158180 -1.545452 -3.801909
  C 3.106506 -2.112287 -5.216021
  H 5.965337 -0.749389 -1.816449
  H 0.929212 0.652374 1.676675
  H 0.596735 -0.709117 0.601439
  H 0.596645 0.892059 -0.041314
  H 4.088306 1.363024 1.076564
  H 4.089918 -0.271622 1.733961
  H 1.930351 -0.694064 -1.673530
  H 4.610102 -0.070683 -0.126853
  H 5.123351 -2.323162 -3.440541
  H 5.124161 -0.735735 -4.077663
  H 2.644978 -0.584259 -3.793522
  H 2.644095 -2.234297 -3.131995
  H 3.596311 -1.446164 -5.921728
  H 2.076322 -2.239932 -5.536203
  H 3.595128 -3.081954 -5.266030
 25
 88.041846
  C 1.140299 0.287775 0.718596
  C 2.598461 0.066282 0.244838
  C 3.491269 0.532078 1.340756
  H 2.905908 0.897113 2.168700
  C 2.584964 -0.481988 -1.007247
  C 3.891817 -0.425014 -0.876953
  C 4.848295 -0.834909 -1.992607
  C 4.591695 -1.346997 -3.322025
  C 3.157647 -1.559256 -3.812702
  C 3.153451 -2.104995 -5.240599
  H 5.883503 -0.726848 -1.759569
  H 1.021276 0.707879 1.691462
  H 0.610476 -0.665281 0.690845
  H 0.623634 0.932547 0.004487
  H 4.135779 1.352092 1.022043
  H 4.120904 -0.271723 1.726978
  H 1.805143 -0.764407 -1.688554
  H 4.555560 -0.119527 -0.109229
  H 5.149675 -2.296772 -3.414838
  H 5.122245 -0.685503 -4.031777
  H 2.616976 -0.610184 -3.801234
  H 2.645548 -2.274266 -3.164932
  H 3.641081 -1.415340 -5.922997
  H 2.134321 -2.254801 -5.587570
  H 3.668797 -3.059223 -5.294756
 25
 125.943379
  C 1.157356 0.298639 0.712670
  C 2.628858 0.054310 0.234829
  C 3.506864 0.536001 1.359198
  H 2.912359 0.911748 2.187961
  C 2.538692 -0.522060 -1.029208
  C 3.831377 -0.402047 -0.821526
  C 4.855651 -0.827662 -1.998859
  C 4.602883 -1.346733 -3.337421
  C 3.170061 -1.558402 -3.817249
  C 3.155467 -2.104034 -5.243854
  H 5.896236 -0.711548 -1.747666
  H 1.035960 0.724830 1.696794
  H 0.627325 -0.652722 0.682833
  H 0.644455 0.947899 0.001360
  H 4.155409 1.355244 1.038251
  H 4.135302 -0.267377 1.757047
  H 1.765214 -0.813375 -1.700949
  H 4.541491 -0.122504 -0.093020
  H 5.166917 -2.291961 -3.425430
  H 5.134801 -0.683098 -4.042227
  H 2.630042 -0.612021 -3.803072
  H 2.665650 -2.271610 -3.165930
  H 3.638341 -1.413701 -5.930002
  H 2.134166 -2.254827 -5.583620
  H 3.671883 -3.058268 -5.301068
 25
 159.967094
  C 1.174239 0.341037 0.686664
  C 2.667839 0.016707 0.234051
  C 3.517219 0.547560 1.378747
  H 2.911780 0.971245 2.167919
  C 2.496108 -0.648957 -1.006210
  C 3.781030 -0.436661 -0.746780
  C 4.859362 -0.825424 -2.005299
  C 4.613774 -1.331681 -3.345576
  C 3.178355 -1.567967 -3.817147
  C 3.162240 -2.082780 -5.251853
  H 5.893204 -0.684816 -1.743672
  H 1.066273 0.799556 1.663693
  H 0.630467 -0.600250 0.678642
  H 0.680836 0.992649 -0.036962
  H 4.177357 1.335459 1.028049
  H 4.121576 -0.242116 1.825654
  H 1.717824 -0.952033 -1.651048
  H 4.579381 -0.192036 -0.068489
  H 5.191667 -2.263955 -3.462982
  H 5.110764 -0.635645 -4.043662
  H 2.617010 -0.638139 -3.778301
  H 2.701943 -2.305999 -3.178185
  H 3.621168 -1.366424 -5.928155
  H 2.142219 -2.252408 -5.584893
  H 3.702850 -3.022603 -5.333412
 25
 182.563237
  C 1.176376 0.368970 0.701423
  C 2.669980 0.011901 0.272775
  C 3.520105 0.568833 1.413424
  H 2.914838 1.017048 2.192906
  C 2.465999 -0.704470 -0.969859
  C 3.728879 -0.449792 -0.676832
  C 4.892595 -0.837856 -2.039498
  C 4.641363 -1.334084 -3.388217
  C 3.203992 -1.579839 -3.836923
  C 3.170619 -2.079029 -5.277758
  H 5.926936 -0.682309 -1.775458
  H 1.071769 0.851212 1.664281
  H 0.617299 -0.561969 0.708263
  H 0.701362 1.012499 -0.039618
  H 4.185803 1.344134 1.041277
  H 4.114441 -0.218022 1.882704
  H 1.684497 -1.017640 -1.607845
  H 4.548867 -0.203537 -0.029789
  H 5.224937 -2.258335 -3.520944
  H 5.119733 -0.626480 -4.086226
  H 2.638027 -0.650640 -3.780980
  H 2.742412 -2.330674 -3.197052
  H 3.614047 -1.350496 -5.952738
  H 2.146453 -2.252775 -5.598079
  H 3.717291 -3.013847 -5.378499
 25
 188.440145
  C 1.172241 0.497867 0.600836
  C 2.635402 0.041763 0.490886
  C 3.436670 0.580681 1.661086
  H 2.800233 1.120678 2.353263
  C 2.543325 -0.884759 -0.766634
  C 3.713488 -0.524769 -0.424431
  C 5.029476 -0.871276 -2.230497
  C 4.710364 -1.281197 -3.584067
  C 3.256039 -1.632277 -3.879822
  C 3.110026 -2.100923 -5.326442
  H 6.077183 -0.632831 -2.058525
  H 0.981806 1.060338 1.508002
  H 0.531482 -0.382195 0.604134
  H 0.867048 1.114438 -0.246246
  H 4.207986 1.259467 1.308886
  H 3.911436 -0.225106 2.225281
  H 1.783683 -1.228035 -1.419529
  H 4.619629 -0.249178 0.054524
  H 5.327535 -2.175832 -3.766040
  H 5.073859 -0.534501 -4.308815
  H 2.634666 -0.747041 -3.748326
  H 2.934786 -2.438081 -3.220965
  H 3.419870 -1.322227 -6.021887
  H 2.074241 -2.349338 -5.544804
  H 3.714241 -2.986705 -5.513344
 25
 178.809539
  C 1.143627 0.633432 0.677082
  C 2.568814 0.132736 0.726127
  C 3.370862 0.587439 1.911824
  H 2.739624 1.172310 2.578056
  C 2.490469 -0.926337 -0.538872
  C 3.652394 -0.484951 -0.233276
  C 5.143033 -0.875983 -2.485359
  C 4.804104 -1.314263 -3.822707
  C 3.339855 -1.685786 -4.042000
  C 3.113753 -2.175544 -5.469779
  H 6.207568 -0.614029 -2.416163
  H 0.912248 1.235779 1.548522
  H 0.439885 -0.196481 0.665079
  H 0.944048 1.207202 -0.228382
  H 4.205108 1.213706 1.597984
  H 3.774228 -0.248445 2.491547
  H 1.713481 -1.309652 -1.166123
  H 4.574952 -0.138255 0.198432
  H 5.444374 -2.195586 -3.996136
  H 5.142642 -0.594276 -4.581848
  H 2.722053 -0.803286 -3.885589
  H 3.057467 -2.477494 -3.351202
  H 3.382524 -1.406663 -6.191756
  H 2.069928 -2.433642 -5.626676
  H 3.712583 -3.059605 -5.678673
 25
 143.303342
  C 1.349908 0.651536 0.065337
  C 2.637632 0.051749 0.568141
  C 3.144561 0.440895 1.930422
  H 2.441652 1.105604 2.421159
  C 2.899190 -1.241027 -0.192985
  C 3.944610 -0.486461 -0.284344
  C 5.254705 -0.697450 -2.508549
  C 4.738816 -1.172614 -3.740426
  C 3.274918 -1.597634 -3.769738
  C 2.856418 -2.049545 -5.165240
  H 6.298642 -0.399302 -2.543153
  H 0.954376 1.357975 0.786951
  H 0.593719 -0.119803 -0.102729
  H 1.497963 1.183414 -0.875312
  H 4.099641 0.954990 1.874222
  H 3.282108 -0.433862 2.560204
  H 2.232526 -1.880753 -0.704686
  H 4.930136 -0.163855 -0.134579
  H 5.378268 -2.023985 -4.021863
  H 4.949559 -0.444007 -4.540699
  H 2.649713 -0.753079 -3.455425
  H 3.129969 -2.415104 -3.063679
  H 2.976948 -1.246731 -5.889543
  H 1.810277 -2.349392 -5.172169
  H 3.451705 -2.901448 -5.492789
