19
 0
 C -3.23054572 -1.78975569 -0.47273088
 C -1.72347570 -1.57584722 -0.54375704
 C -1.22363658 -1.82776745 -1.96532118
 C -1.21593232 -0.21440149 -0.06555208
 C -2.17193036 0.89026591 0.30562372
 O 0.00000000 0.00000000 0.00000000
 H -3.48986258 -2.81236568 -0.76805297
 H -3.76671948 -1.10644960 -1.14023133
 H -3.60282760 -1.63848926 0.54589300
 H -1.26135295 -2.31372679 0.12516236
 H -1.63189615 -1.08991354 -2.66463279
 H -1.51328240 -2.82577793 -2.31112611
 H -0.13138129 -1.76226572 -2.01767687
 H -3.21696814 0.58719094 0.27917009
 H -2.03931534 1.72265694 -0.39065056
 H -1.94569869 1.22059721 1.32363191
 O 3.35289915 -0.16802169 0.05214165
 H 2.40000000 0.00000000 0.00000000
 H 3.69598384 0.16646461 -0.79009788
