 19
 0.000000
  C -3.240833 -1.780745 -0.451464
  C -1.753797 -1.575954 -0.541303
  C -1.213208 -1.768941 -1.945748
  C -1.187347 -0.199754 -0.064518
  C -2.185116 0.850444 0.276372
  O -0.012175 -0.018220 -0.010095
  H -3.473332 -2.806643 -0.743381
  H -3.791267 -1.137499 -1.136626
  H -3.611368 -1.650429 0.562981
  H -1.263649 -2.279393 0.149694
  H -1.626474 -1.048142 -2.651488
  H -1.500981 -2.758913 -2.300230
  H -0.128896 -1.682636 -1.966480
  H -3.212889 0.514250 0.233482
  H -2.032685 1.675791 -0.421442
  H -1.948195 1.205929 1.280220
  O 3.347159 -0.190158 0.036624
  H 2.397898 -0.020529 -0.012398
  H 3.721215 0.133936 -0.792408
 19
 -0.417225
  C -3.218061 -1.784933 -0.433345
  C -1.736251 -1.578839 -0.547333
  C -1.206114 -1.741597 -1.956409
  C -1.156751 -0.188163 -0.062634
  C -2.163413 0.849379 0.261613
  O 0.018702 -0.027206 -0.007799
  H -3.436890 -2.822849 -0.700242
  H -3.783124 -1.173630 -1.134857
  H -3.579676 -1.648849 0.582963
  H -1.216028 -2.251239 0.152153
  H -1.650560 -1.029888 -2.651608
  H -1.488181 -2.731093 -2.317125
  H -0.124621 -1.641458 -1.992675
  H -3.191177 0.515520 0.209352
  H -1.997134 1.673387 -0.432989
  H -1.928746 1.220306 1.258899
  O 3.232501 -0.232552 0.044756
  H 2.286821 -0.049497 -0.003714
  H 3.628381 0.107379 -0.764373
 19
 -0.472652
  C -3.192795 -1.786256 -0.425408
  C -1.712367 -1.572880 -0.547779
  C -1.189446 -1.727191 -1.957965
  C -1.137826 -0.179322 -0.063073
  C -2.149345 0.855711 0.256489
  O 0.038301 -0.018723 -0.006127
  H -3.406287 -2.826635 -0.684737
  H -3.764577 -1.182637 -1.127021
  H -3.550158 -1.647557 0.591238
  H -1.183699 -2.241577 0.147542
  H -1.642709 -1.016697 -2.647858
  H -1.467422 -2.716496 -2.319922
  H -0.109001 -1.621908 -2.000371
  H -3.179519 0.518676 0.200323
  H -1.982505 1.679909 -0.437617
  H -1.919642 1.228839 1.253866
  O 3.128288 -0.276550 0.040311
  H 2.185236 -0.071339 -0.006372
  H 3.536707 0.076395 -0.756663
 19
 -0.644304
  C -3.120709 -1.807787 -0.392978
  C -1.655939 -1.527739 -0.539050
  C -1.146150 -1.648749 -1.957376
  C -1.142559 -0.107105 -0.059595
  C -2.199352 0.886093 0.239616
  O 0.026382 0.098575 0.008123
  H -3.285053 -2.864247 -0.627599
  H -3.730367 -1.247672 -1.098361
  H -3.470869 -1.667519 0.625528
  H -1.084619 -2.169629 0.147069
  H -1.642077 -0.956695 -2.637033
  H -1.385183 -2.649290 -2.321631
  H -0.072369 -1.497620 -2.014424
  H -3.208438 0.511106 0.163543
  H -2.050624 1.720392 -0.452178
  H -2.003975 1.267844 1.243045
  O 2.967010 -0.541287 -0.021042
  H 2.073795 -0.171570 -0.040756
  H 3.456200 -0.142386 -0.748612
 19
 -1.022254
  C -3.017215 -1.826212 -0.356481
  C -1.575502 -1.456465 -0.523576
  C -1.076496 -1.546093 -1.946802
  C -1.149265 -0.001534 -0.055224
  C -2.264499 0.930442 0.222939
  O 0.006525 0.264452 0.023720
  H -3.113175 -2.895078 -0.570480
  H -3.668029 -1.320530 -1.063173
  H -3.365231 -1.691921 0.665009
  H -0.953318 -2.057436 0.156565
  H -1.621391 -0.886027 -2.620861
  H -1.259278 -2.559340 -2.307782
  H -0.013497 -1.335075 -2.016389
  H -3.251593 0.501860 0.119700
  H -2.144623 1.777342 -0.457409
  H -2.116202 1.314488 1.234342
  O 2.707228 -0.888947 -0.119029
  H 1.928435 -0.315151 -0.087091
  H 3.308043 -0.513915 -0.771773
 19
 -1.729428
  C -2.890887 -1.849423 -0.309384
  C -1.480853 -1.385047 -0.510363
  C -1.009540 -1.437321 -1.944262
  C -1.147862 0.099875 -0.051258
  C -2.321078 0.965218 0.193924
  O -0.011075 0.430680 0.045085
  H -2.913358 -2.926119 -0.497233
  H -3.591008 -1.404900 -1.016994
  H -3.228904 -1.716813 0.711926
  H -0.802943 -1.940007 0.152240
  H -1.616302 -0.821584 -2.605013
  H -1.125733 -2.465543 -2.300569
  H 0.033227 -1.155108 -2.038810
  H -3.280041 0.483561 0.054513
  H -2.224724 1.824352 -0.473607
  H -2.229389 1.346173 1.212933
  O 2.385486 -1.193051 -0.199310
  H 1.766557 -0.454244 -0.107397
  H 3.095361 -0.891765 -0.775314
 19
 -2.065711
  C -2.832883 -1.843535 -0.294884
  C -1.429916 -1.354929 -0.490705
  C -0.953932 -1.413912 -1.922833
  C -1.123886 0.131312 -0.035724
  C -2.311544 0.983587 0.191891
  O 0.004620 0.492268 0.078022
  H -2.841593 -2.917409 -0.499187
  H -3.539461 -1.400465 -0.994853
  H -3.173925 -1.726619 0.729747
  H -0.743707 -1.905095 0.173412
  H -1.555182 -0.798481 -2.589526
  H -1.065014 -2.442976 -2.273816
  H 0.090770 -1.137284 -2.011922
  H -3.261903 0.491026 0.035964
  H -2.213761 1.843755 -0.470929
  H -2.240412 1.364683 1.214100
  O 2.130184 -1.314824 -0.359451
  H 1.596908 -0.536215 -0.136195
  H 2.929980 -0.991948 -0.785433
 19
 -1.721471
  C -2.848340 -1.817798 -0.326685
  C -1.426001 -1.356533 -0.461401
  C -0.890816 -1.473467 -1.871347
  C -1.106195 0.117024 -0.013919
  C -2.289761 0.972847 0.242984
  O 0.018128 0.495432 0.087631
  H -2.872958 -2.891863 -0.518389
  H -3.505913 -1.366092 -1.064468
  H -3.236983 -1.677962 0.682402
  H -0.792029 -1.923176 0.239455
  H -1.381765 -0.795431 -2.570159
  H -1.089065 -2.481784 -2.228137
  H 0.181866 -1.301838 -1.901647
  H -3.241627 0.483252 0.101848
  H -2.201894 1.840663 -0.418534
  H -2.197580 1.348534 1.262033
  O 2.034704 -1.248805 -0.565166
  H 1.503280 -0.508176 -0.222896
  H 2.868112 -0.882431 -0.877799
 19
 0.123561
  C -2.856793 -1.800707 -0.373783
  C -1.417311 -1.348822 -0.425859
  C -0.813013 -1.557060 -1.797761
  C -1.104132 0.105989 -0.000204
  C -2.270956 0.977491 0.305553
  O 0.028351 0.506955 0.077572
  H -2.895803 -2.869637 -0.560624
  H -3.455661 -1.331564 -1.149749
  H -3.298758 -1.646321 0.609787
  H -0.853341 -1.937790 0.315547
  H -1.161246 -0.855055 -2.548233
  H -1.047864 -2.562754 -2.139271
  H 0.282012 -1.448020 -1.729500
  H -3.228006 0.483225 0.229540
  H -2.226827 1.825008 -0.378981
  H -2.122197 1.385347 1.309020
  O 1.943121 -1.164753 -0.683123
  H 1.397514 -0.440126 -0.319295
  H 2.694737 -0.777341 -1.142610
 19
 2.662413
  C -2.822912 -1.796200 -0.420229
  C -1.373201 -1.325668 -0.396355
  C -0.746071 -1.616190 -1.748512
  C -1.097323 0.114141 0.013347
  C -2.257964 0.990551 0.345025
  O 0.030748 0.550376 0.077101
  H -2.866031 -2.866727 -0.617276
  H -3.380145 -1.304345 -1.210150
  H -3.301630 -1.642747 0.544321
  H -0.847586 -1.924955 0.364276
  H -0.994121 -0.903892 -2.525495
  H -0.961989 -2.630477 -2.061601
  H 0.377024 -1.546573 -1.609418
  H -3.214752 0.490625 0.298772
  H -2.247042 1.832059 -0.341927
  H -2.093324 1.416552 1.341226
  O 1.756902 -1.128794 -0.764106
  H 1.245356 -0.371122 -0.352342
  H 2.476846 -0.782390 -1.304986
 19
 5.333825
  C -2.812990 -1.792779 -0.450322
  C -1.346455 -1.327414 -0.394399
  C -0.693689 -1.643767 -1.715592
  C -1.103292 0.113768 0.017305
  C -2.235452 1.000523 0.372525
  O 0.044287 0.546630 0.077122
  H -2.849363 -2.864614 -0.628935
  H -3.351345 -1.298766 -1.255344
  H -3.303418 -1.603604 0.497618
  H -0.844271 -1.935818 0.371792
  H -0.912279 -0.954418 -2.525802
  H -0.800172 -2.681973 -2.002802
  H 0.511485 -1.540233 -1.486157
  H -3.202132 0.519388 0.349211
  H -2.232079 1.845439 -0.317448
  H -2.051479 1.431391 1.357693
  O 1.609012 -1.120463 -0.811558
  H 1.078952 -0.304849 -0.364726
  H 2.309311 -0.813542 -1.405471
 19
 8.505988
  C -2.805464 -1.795887 -0.447489
  C -1.338378 -1.333059 -0.391867
  C -0.668983 -1.646681 -1.706070
  C -1.101583 0.102021 0.011149
  C -2.216362 0.998979 0.365709
  O 0.052759 0.548426 0.069995
  H -2.839460 -2.867170 -0.629106
  H -3.344330 -1.301201 -1.252455
  H -3.300568 -1.609460 0.498650
  H -0.833161 -1.936764 0.377106
  H -0.872333 -0.958677 -2.514571
  H -0.746816 -2.686629 -1.997008
  H 0.586815 -1.530396 -1.433778
  H -3.189669 0.529809 0.339621
  H -2.202635 1.846671 -0.321265
  H -2.030318 1.430693 1.349470
  O 1.581388 -1.130052 -0.822629
  H 0.968642 -0.218387 -0.310884
  H 2.274509 -0.850749 -1.433359
 19
 9.650166
  C -2.801587 -1.798846 -0.453335
  C -1.336445 -1.324683 -0.393446
  C -0.647484 -1.634853 -1.697473
  C -1.114166 0.104582 0.005235
  C -2.222119 0.996088 0.367531
  O 0.043858 0.572203 0.056383
  H -2.826920 -2.868726 -0.649269
  H -3.344810 -1.299357 -1.253795
  H -3.300397 -1.629673 0.492729
  H -0.830980 -1.919111 0.380932
  H -0.823743 -0.940071 -2.504503
  H -0.723703 -2.670719 -1.998400
  H 0.655466 -1.538044 -1.400451
  H -3.192970 0.521700 0.362415
  H -2.224067 1.838259 -0.327454
  H -2.021824 1.445286 1.342021
  O 1.606323 -1.173413 -0.862443
  H 0.885915 -0.117059 -0.276647
  H 2.289953 -0.943765 -1.500459
 19
 10.456691
  C -2.802416 -1.796175 -0.445939
  C -1.348028 -1.305035 -0.372959
  C -0.636472 -1.614435 -1.657678
  C -1.159811 0.120649 0.019470
  C -2.267668 0.990452 0.398465
  O -0.005265 0.638313 0.028217
  H -2.812946 -2.851786 -0.700387
  H -3.355068 -1.261490 -1.211596
  H -3.300845 -1.686870 0.512798
  H -0.862192 -1.884506 0.432747
  H -0.669607 -0.860835 -2.430337
  H -0.730350 -2.629961 -2.006817
  H 0.845958 -1.621725 -1.330314
  H -3.222500 0.486472 0.455784
  H -2.330593 1.802959 -0.329313
  H -2.036101 1.494895 1.338576
  O 1.770239 -1.281020 -0.927074
  H 0.775970 0.049621 -0.217556
  H 2.376541 -1.175897 -1.666443
 19
 11.047018
  C -2.782522 -1.797249 -0.462660
  C -1.323397 -1.307721 -0.367390
  C -0.607397 -1.589662 -1.656287
  C -1.138405 0.106023 0.065751
  C -2.250290 0.973788 0.437657
  O 0.011667 0.621933 0.087911
  H -2.791581 -2.846527 -0.749163
  H -3.331016 -1.239847 -1.215576
  H -3.284735 -1.716909 0.494624
  H -0.845992 -1.910381 0.415849
  H -0.651029 -0.826413 -2.414286
  H -0.699366 -2.595253 -2.023487
  H 0.910031 -1.621870 -1.349228
  H -3.209485 0.472631 0.465981
  H -2.295158 1.808754 -0.275859
  H -2.036645 1.456827 1.388749
  O 1.797540 -1.305671 -0.898807
  H 0.785587 0.031796 -0.153709
  H 2.420337 -1.194132 -1.618195
