 17
 0.000000
  H 1.441175 0.112206 0.331609
  C 2.523198 0.111735 0.330236
  C 3.196765 0.597932 1.537221
  H 2.483061 0.903226 2.297519
  C 3.152369 -0.346839 -0.809642
  C 4.540060 -0.408881 -0.964256
  C 5.216396 -0.864810 -2.102953
  C 4.572900 -1.357721 -3.334590
  H 3.489965 -1.339389 -3.292090
  O 6.521546 -0.880361 -2.142330
  H 3.847919 1.441966 1.302615
  H 3.849458 -0.172315 1.952090
  H 2.522551 -0.673911 -1.623865
  H 5.150791 -0.076020 -0.133267
  H 4.916642 -2.373650 -3.533546
  H 4.918699 -0.761179 -4.179811
  H 6.971542 -0.559216 -1.341619
 17
 7.327474
  H 1.470282 0.138550 0.388325
  C 2.540138 0.126680 0.364389
  C 3.240549 0.598877 1.542405
  H 2.543575 0.909525 2.313645
  C 3.141419 -0.350872 -0.822049
  C 4.480569 -0.436961 -1.032408
  C 5.221161 -0.874025 -2.126334
  C 4.614010 -1.372872 -3.368671
  H 3.533428 -1.360731 -3.338571
  O 6.523948 -0.864147 -2.109209
  H 3.894758 1.444531 1.298347
  H 3.892824 -0.182103 1.951407
  H 2.452650 -0.659204 -1.595074
  H 4.846733 -0.069552 -0.111286
  H 4.967536 -2.385654 -3.560127
  H 4.968005 -0.774212 -4.207413
  H 6.936999 -0.527157 -1.275152
 17
 23.506106
  H 1.483186 0.146239 0.409341
  C 2.553069 0.130753 0.374661
  C 3.282726 0.602255 1.552030
  H 2.597850 0.914979 2.330856
  C 3.127187 -0.352936 -0.829330
  C 4.449716 -0.452659 -1.074782
  C 5.227510 -0.876086 -2.133420
  C 4.644277 -1.381566 -3.389616
  H 3.563317 -1.372851 -3.370336
  O 6.531967 -0.850976 -2.077541
  H 3.932644 1.444527 1.306544
  H 3.931791 -0.177133 1.956475
  H 2.383008 -0.646436 -1.564786
  H 4.588855 -0.069099 -0.115260
  H 5.004605 -2.393403 -3.574944
  H 5.006552 -0.782000 -4.224481
  H 6.909082 -0.512617 -1.237233
 17
 43.283739
  H 1.479999 0.154421 0.431781
  C 2.554548 0.141048 0.401107
  C 3.283077 0.611017 1.574119
  H 2.594904 0.924160 2.355700
  C 3.137762 -0.348185 -0.817990
  C 4.461344 -0.460076 -1.094232
  C 5.245257 -0.882783 -2.150920
  C 4.662404 -1.390879 -3.412833
  H 3.579073 -1.381091 -3.392691
  O 6.544403 -0.856063 -2.090805
  H 3.933894 1.453345 1.330148
  H 3.934292 -0.166490 1.979173
  H 2.362448 -0.633744 -1.534061
  H 4.416787 -0.068802 -0.115954
  H 5.022538 -2.403937 -3.597765
  H 5.025580 -0.791524 -4.248696
  H 6.916094 -0.517991 -1.248152
 17
 62.720369
  H 1.480019 0.152932 0.431398
  C 2.555255 0.145452 0.413046
  C 3.272513 0.620513 1.597542
  H 2.573626 0.930925 2.375591
  C 3.158151 -0.341906 -0.803622
  C 4.489360 -0.460036 -1.094886
  C 5.257479 -0.886689 -2.160672
  C 4.663801 -1.394858 -3.422808
  H 3.584494 -1.380986 -3.394827
  O 6.557472 -0.865110 -2.112169
  H 3.923665 1.467646 1.359539
  H 3.926960 -0.155290 2.009196
  H 2.364881 -0.629277 -1.524766
  H 4.293081 -0.072159 -0.125741
  H 5.018094 -2.408838 -3.609399
  H 5.022302 -0.797061 -4.260154
  H 6.933780 -0.529578 -1.274623
 17
 79.889140
  H 1.463676 0.148054 0.412434
  C 2.552911 0.148163 0.416992
  C 3.252588 0.624833 1.613591
  H 2.562316 0.922866 2.364268
  C 3.174078 -0.330014 -0.781573
  C 4.520277 -0.459554 -1.093130
  C 5.265256 -0.891897 -2.173742
  C 4.657974 -1.393594 -3.412912
  H 3.590488 -1.374296 -3.367379
  O 6.570187 -0.877907 -2.150298
  H 3.901792 1.470762 1.386514
  H 3.901860 -0.143318 2.027932
  H 2.389084 -0.609249 -1.491557
  H 4.201263 -0.076136 -0.134047
  H 5.003941 -2.408413 -3.603019
  H 5.005552 -0.797598 -4.254407
  H 6.964133 -0.542768 -1.319747
 17
 90.896952
  H 1.477923 0.245832 0.346761
  C 2.552229 0.197326 0.397358
  C 3.211328 0.584396 1.662810
  H 2.476077 0.861909 2.411096
  C 3.211975 -0.221445 -0.769953
  C 4.575446 -0.458411 -1.102664
  C 5.276254 -0.878472 -2.175450
  C 4.636295 -1.477512 -3.382964
  H 3.557977 -1.509847 -3.298722
  O 6.593343 -0.815720 -2.242882
  H 3.894146 1.427596 1.532536
  H 3.810126 -0.246406 2.051922
  H 2.457915 -0.421566 -1.556275
  H 4.165018 -0.079919 -0.132291
  H 5.022473 -2.480807 -3.559843
  H 4.925975 -0.874653 -4.241971
  H 7.018909 -0.426562 -1.457035
 17
 95.919694
  H 1.460165 0.333047 0.344063
  C 2.530087 0.246259 0.430475
  C 3.150744 0.565476 1.738173
  H 2.401329 0.831287 2.475415
  C 3.229512 -0.149548 -0.754059
  C 4.597895 -0.459437 -1.163139
  C 5.287935 -0.876429 -2.214171
  C 4.636335 -1.539162 -3.393852
  H 3.561213 -1.606871 -3.287780
  O 6.611926 -0.796211 -2.323765
  H 3.866981 1.392341 1.656818
  H 3.727677 -0.295342 2.109115
  H 2.508416 -0.293891 -1.576430
  H 4.149560 -0.068709 -0.130521
  H 5.053159 -2.528581 -3.533024
  H 4.894463 -0.963043 -4.270661
  H 7.056345 -0.376290 -1.563786
 17
 99.949976
  H 1.477796 0.342395 0.312079
  C 2.544433 0.244877 0.427801
  C 3.110774 0.550197 1.768447
  H 2.318089 0.796316 2.466532
  C 3.280111 -0.119883 -0.712590
  C 4.628868 -0.480642 -1.157019
  C 5.293481 -0.886643 -2.229685
  C 4.615158 -1.558864 -3.389769
  H 3.544152 -1.640103 -3.246820
  O 6.611468 -0.791080 -2.396584
  H 3.786325 1.399545 1.729936
  H 3.668178 -0.304139 2.173543
  H 2.588846 -0.256475 -1.563107
  H 4.155224 -0.021142 -0.086969
  H 5.046392 -2.551249 -3.535555
  H 4.829380 -0.967359 -4.272381
  H 7.072351 -0.368981 -1.655460
 17
 103.446280
  H 1.494718 0.503818 0.268902
  C 2.544623 0.322011 0.426740
  C 3.072539 0.457559 1.805138
  H 2.269672 0.681026 2.500578
  C 3.306061 0.015659 -0.727315
  C 4.622545 -0.424850 -1.199088
  C 5.279768 -0.863893 -2.259511
  C 4.608691 -1.666762 -3.338775
  H 3.549578 -1.799663 -3.153294
  O 6.587565 -0.719102 -2.457012
  H 3.810949 1.263711 1.874054
  H 3.567607 -0.460656 2.133462
  H 2.649343 0.010095 -1.607341
  H 4.128963 0.034713 -0.071296
  H 5.095225 -2.637314 -3.415465
  H 4.761612 -1.144936 -4.275726
  H 7.040035 -0.207615 -1.761914
 17
 106.505349
  H 1.531328 0.694496 0.254684
  C 2.552678 0.401570 0.429370
  C 3.034988 0.346628 1.827730
  H 2.227125 0.559193 2.516894
  C 3.338944 0.158841 -0.752851
  C 4.596246 -0.360582 -1.254384
  C 5.261165 -0.841308 -2.283096
  C 4.610826 -1.785201 -3.259797
  H 3.568409 -1.960231 -3.025041
  O 6.558263 -0.644599 -2.527273
  H 3.825927 1.071741 2.009685
  H 3.452395 -0.644043 2.073748
  H 2.709497 0.288088 -1.639320
  H 4.095717 0.091084 -0.056932
  H 5.146171 -2.718541 -3.261393
  H 4.705830 -1.343731 -4.257666
  H 6.990082 -0.035688 -1.901236
 17
 106.508763
  H 1.567325 0.917491 0.314048
  C 2.546265 0.497767 0.460957
  C 3.011012 0.201987 1.830408
  H 2.222107 0.382973 2.551331
  C 3.335308 0.332018 -0.758807
  C 4.484874 -0.278369 -1.361203
  C 5.213299 -0.829560 -2.304370
  C 4.644623 -1.918623 -3.170340
  H 3.610440 -2.133915 -2.927910
  O 6.506831 -0.575511 -2.582599
  H 3.869968 0.826737 2.109805
  H 3.346214 -0.834192 1.925600
  H 2.739123 0.593607 -1.640204
  H 4.047826 0.199416 -0.038212
  H 5.244736 -2.818030 -3.061058
  H 4.730236 -1.581872 -4.198200
  H 6.901379 0.126221 -2.043640
 17
 105.752663
  H 1.600094 0.991252 0.378361
  C 2.557348 0.515898 0.493604
  C 2.997064 0.085674 1.833537
  H 2.206131 0.239476 2.558793
  C 3.347867 0.433410 -0.764384
  C 4.424141 -0.217184 -1.444948
  C 5.179456 -0.812519 -2.325307
  C 4.654057 -2.004987 -3.088029
  H 3.625895 -2.229197 -2.829946
  O 6.473655 -0.544477 -2.602046
  H 3.879283 0.640986 2.181087
  H 3.286324 -0.970317 1.840938
  H 2.802206 0.795703 -1.637553
  H 4.035404 0.309648 -0.034452
  H 5.286464 -2.864966 -2.877970
  H 4.732487 -1.780512 -4.145723
  H 6.821054 0.230215 -2.133185
 17
 103.037219
  H 1.637071 1.023013 0.422148
  C 2.563027 0.483212 0.513230
  C 2.976964 -0.038805 1.825197
  H 2.184327 0.118359 2.549235
  C 3.378572 0.494223 -0.766793
  C 4.432573 -0.184090 -1.454532
  C 5.176966 -0.811248 -2.317859
  C 4.656481 -2.068039 -2.973310
  H 3.644639 -2.295803 -2.655766
  O 6.446459 -0.514868 -2.671264
  H 3.881069 0.443386 2.216441
  H 3.188691 -1.111278 1.780054
  H 2.880513 0.956347 -1.617464
  H 4.023982 0.437114 -0.011083
  H 5.320744 -2.891731 -2.721165
  H 4.678409 -1.924437 -4.046949
  H 6.771466 0.309172 -2.276550
