 14
 0.000000
  H 1.383894 0.122605 0.355914
  C 2.456052 0.091095 0.278207
  H 3.023821 0.432960 1.127850
  C 3.069166 -0.363522 -0.851932
  C 4.466867 -0.406999 -0.961324
  C 5.196762 -0.854604 -2.077791
  C 4.596069 -1.353561 -3.323040
  H 3.511683 -1.349310 -3.315155
  O 6.493522 -0.849423 -2.065358
  H 2.456650 -0.696000 -1.678162
  H 5.031201 -0.061844 -0.102773
  H 4.962225 -2.364274 -3.516509
  H 4.963901 -0.757432 -4.161093
  H 6.918835 -0.523278 -1.251100
 14
 12.768031
  H 1.326025 0.137311 0.391638
  C 2.396940 0.097099 0.292975
  H 2.983974 0.434661 1.132260
  C 2.975243 -0.358140 -0.838469
  C 4.506130 -0.412917 -0.975376
  C 5.196021 -0.859082 -2.088599
  C 4.597478 -1.352908 -3.321224
  H 3.516148 -1.345521 -3.305260
  O 6.617875 -0.858044 -2.087215
  H 2.357892 -0.687384 -1.657170
  H 5.075424 -0.070508 -0.123019
  H 4.961626 -2.364320 -3.518049
  H 4.963162 -0.758352 -4.162065
  H 7.034934 -0.531538 -1.273116
 14
 38.168033
  H 1.305309 0.164792 0.454184
  C 2.373027 0.109479 0.321785
  H 2.983280 0.439785 1.145001
  C 2.891633 -0.350988 -0.820568
  C 4.547142 -0.412140 -0.967847
  C 5.146048 -0.865113 -2.102142
  C 4.599871 -1.363146 -3.345815
  H 3.530781 -1.366828 -3.352426
  O 6.703053 -0.863270 -2.104682
  H 2.325749 -0.688793 -1.663564
  H 5.072026 -0.065291 -0.100606
  H 4.984321 -2.357554 -3.542426
  H 4.983176 -0.778430 -4.174094
  H 7.034576 -0.526924 -1.266807
 14
 68.635737
  H 1.268855 0.183352 0.499893
  C 2.335493 0.118509 0.343697
  H 2.964811 0.444580 1.157293
  C 2.811564 -0.343475 -0.803595
  C 4.575529 -0.414072 -0.970711
  C 5.104791 -0.869450 -2.112340
  C 4.599990 -1.367295 -3.355503
  H 3.511574 -1.377592 -3.376452
  O 6.812014 -0.869672 -2.123343
  H 2.271651 -0.687165 -1.663410
  H 5.088036 -0.064261 -0.092834
  H 5.001566 -2.364139 -3.551683
  H 4.999299 -0.780190 -4.185412
  H 7.103811 -0.527564 -1.271032
 14
 98.528751
  H 1.235669 0.195563 0.531892
  C 2.299442 0.124688 0.358559
  H 2.940457 0.447396 1.164823
  C 2.743066 -0.336588 -0.789083
  C 4.578740 -0.417503 -0.977726
  C 5.047944 -0.871352 -2.115777
  C 4.590174 -1.367875 -3.355993
  H 3.503036 -1.385794 -3.394495
  O 6.941553 -0.874987 -2.139482
  H 2.226318 -0.682469 -1.656158
  H 5.084470 -0.069114 -0.101452
  H 5.002603 -2.365702 -3.545899
  H 5.000027 -0.775425 -4.182322
  H 7.219560 -0.532477 -1.285315
 14
 105.845614
  H 1.335716 0.273754 0.632190
  C 2.391251 0.172830 0.439349
  H 3.056243 0.449792 1.237023
  C 2.818750 -0.280743 -0.753919
  C 4.269040 -0.498600 -1.011401
  C 4.657055 -0.942779 -2.170622
  C 4.574180 -1.437778 -3.456533
  H 3.513791 -1.585248 -3.718151
  O 7.156499 -0.733301 -2.026186
  H 2.156049 -0.518500 -1.567823
  H 4.896810 -0.224874 -0.177629
  H 5.094288 -2.400272 -3.552732
  H 5.052144 -0.770866 -4.185114
  H 7.401189 -0.407724 -1.157993
 14
 106.560977
  H 1.377221 0.360081 0.770752
  C 2.406702 0.193527 0.509457
  H 3.144248 0.438517 1.263836
  C 2.726058 -0.260022 -0.709781
  C 4.111921 -0.542045 -1.083518
  C 4.461928 -0.986161 -2.238550
  C 4.629195 -1.468713 -3.503368
  H 3.634853 -1.670941 -3.921849
  O 7.231744 -0.677621 -1.979574
  H 1.970532 -0.443593 -1.473375
  H 4.832568 -0.312186 -0.300123
  H 5.166480 -2.426927 -3.512056
  H 5.144411 -0.757961 -4.158524
  H 7.538673 -0.355992 -1.127293
 14
 105.900709
  H 1.363137 0.398516 0.843945
  C 2.379865 0.219321 0.537847
  H 3.138163 0.348870 1.291933
  C 2.648712 -0.189955 -0.706402
  C 4.004705 -0.510208 -1.132051
  C 4.373126 -0.921000 -2.291039
  C 4.631662 -1.419257 -3.532574
  H 3.659586 -1.587185 -4.030958
  O 7.427321 -0.857418 -1.901325
  H 1.875637 -0.308689 -1.448884
  H 4.758991 -0.362715 -0.360741
  H 5.115829 -2.403079 -3.493031
  H 5.214498 -0.732205 -4.155413
  H 7.844489 -0.591189 -1.077329
 14
 106.338491
  H 1.353547 0.437462 0.859954
  C 2.359534 0.219569 0.551269
  H 3.128867 0.355912 1.291750
  C 2.606341 -0.208249 -0.706054
  C 3.948872 -0.529490 -1.150798
  C 4.301808 -0.946755 -2.291703
  C 4.608739 -1.422434 -3.528147
  H 3.650440 -1.613994 -4.058079
  O 7.621405 -0.833994 -1.883272
  H 1.823526 -0.335338 -1.448649
  H 4.718750 -0.374329 -0.381509
  H 5.118713 -2.399550 -3.483737
  H 5.185072 -0.704773 -4.132842
  H 8.082604 -0.566423 -1.087299
 14
 105.883277
  H 1.371425 0.463206 0.950538
  C 2.353086 0.222424 0.592961
  H 3.165102 0.338653 1.295567
  C 2.535417 -0.194150 -0.671038
  C 3.842069 -0.532912 -1.198022
  C 4.189097 -0.945452 -2.364370
  C 4.627779 -1.443653 -3.557412
  H 3.739005 -1.679317 -4.162247
  O 7.757264 -0.794297 -1.837412
  H 1.707347 -0.293406 -1.350393
  H 4.656705 -0.399359 -0.494139
  H 5.146741 -2.400167 -3.442871
  H 5.223224 -0.730790 -4.129830
  H 8.261555 -0.531107 -1.078841
 14
 105.936935
  H 1.344492 0.443593 0.970879
  C 2.323933 0.225817 0.593300
  H 3.147339 0.360750 1.279362
  C 2.488930 -0.202205 -0.666653
  C 3.785958 -0.539001 -1.212184
  C 4.145604 -0.961993 -2.366334
  C 4.602731 -1.449775 -3.550670
  H 3.722926 -1.696004 -4.175678
  O 7.975083 -0.764667 -1.823433
  H 1.649427 -0.309475 -1.336640
  H 4.622774 -0.407806 -0.519229
  H 5.133093 -2.403960 -3.430599
  H 5.195821 -0.721297 -4.114519
  H 8.542982 -0.506516 -1.090241
