 22
 0.000000
  C 0.980240 0.159571 0.449096
  C 2.450696 0.135651 0.389297
  C 3.235741 0.599863 1.544183
  H 2.611461 0.930023 2.366385
  C 3.042937 -0.333469 -0.778397
  C 4.424664 -0.417880 -0.989405
  C 5.088740 -0.866096 -2.107378
  C 4.628773 -1.385185 -3.401918
  C 3.148305 -1.513086 -3.720829
  H 3.032116 -1.914877 -4.723113
  H 6.170195 -0.843253 -2.050818
  H 0.607360 0.539676 1.394756
  H 0.580953 -0.843332 0.288696
  H 0.580729 0.772430 -0.360713
  H 3.891523 1.420451 1.248132
  H 3.891875 -0.197171 1.898143
  H 2.374984 -0.648476 -1.562212
  H 5.056067 -0.090460 -0.173847
  H 5.107822 -2.366319 -3.524545
  H 5.107900 -0.760652 -4.168441
  H 2.655401 -0.544395 -3.691387
  H 2.655500 -2.193282 -3.030413
 22
 1.316959
  C 0.980925 0.006845 0.480343
  C 2.446801 0.042549 0.353534
  C 3.234156 0.921686 1.232471
  H 2.604322 1.469209 1.925298
  C 3.038681 -0.720687 -0.643861
  C 4.427875 -0.830484 -0.838988
  C 5.098417 -1.193448 -1.976405
  C 4.632066 -1.315174 -3.362968
  C 3.154054 -1.163205 -3.680185
  H 3.023289 -1.054388 -4.754734
  H 6.167907 -1.334353 -1.875178
  H 0.617082 0.642503 1.281042
  H 0.644803 -1.017896 0.650936
  H 0.510020 0.310105 -0.456594
  H 3.815626 1.632937 0.645250
  H 3.960749 0.339685 1.800453
  H 2.385560 -1.332494 -1.245919
  H 5.049970 -0.591725 0.016139
  H 4.999380 -2.278744 -3.738963
  H 5.204691 -0.578697 -3.944096
  H 2.742034 -0.276375 -3.203594
  H 2.589424 -2.035548 -3.362277
 22
 5.583727
  C 0.980136 0.037604 0.380580
  C 2.445594 -0.010841 0.249057
  C 3.283910 1.001145 0.915634
  H 2.691638 1.728521 1.457825
  C 3.011005 -0.981925 -0.561818
  C 4.415337 -1.146781 -0.736024
  C 5.107516 -1.346470 -1.882640
  C 4.633581 -1.161378 -3.269776
  C 3.136938 -1.016056 -3.489922
  H 2.939168 -0.536682 -4.445264
  H 6.165424 -1.550234 -1.801306
  H 0.654214 0.821526 1.057390
  H 0.606884 -0.926550 0.737959
  H 0.505414 0.184236 -0.589154
  H 3.912687 1.520945 0.190150
  H 3.975411 0.518813 1.609225
  H 2.355734 -1.733269 -0.983981
  H 4.996467 -1.098714 0.177733
  H 5.021148 -2.007681 -3.847856
  H 5.156036 -0.289276 -3.676151
  H 2.699678 -0.383785 -2.709773
  H 2.636994 -1.978093 -3.473148
 22
 11.452314
  C 0.974999 0.085928 0.368491
  C 2.423024 -0.025161 0.130084
  C 3.349251 1.000732 0.639159
  H 2.829496 1.777882 1.199585
  C 2.908843 -1.076499 -0.643462
  C 4.332346 -1.373460 -0.717775
  C 5.111008 -1.405156 -1.800474
  C 4.674125 -0.988643 -3.172706
  C 3.179645 -0.986321 -3.368122
  H 2.869672 -0.310814 -4.166596
  H 6.158228 -1.628253 -1.690933
  H 0.719061 0.987391 0.926455
  H 0.611930 -0.787324 0.915430
  H 0.426053 0.084021 -0.574223
  H 3.918759 1.459602 -0.171667
  H 4.096512 0.534073 1.280565
  H 2.233123 -1.900700 -0.820589
  H 4.784553 -1.573666 0.246761
  H 5.144495 -1.679590 -3.886180
  H 5.093474 0.003918 -3.374889
  H 2.716193 -0.575742 -2.458571
  H 2.786351 -1.976580 -3.549076
 22
 25.234028
  C 0.995138 0.097301 0.300838
  C 2.423382 0.024900 -0.048733
  C 3.390792 0.988558 0.513369
  H 2.896829 1.742970 1.126574
  C 2.875339 -1.057040 -0.892189
  C 4.306189 -1.446600 -0.763214
  C 5.150956 -1.394379 -1.781847
  C 4.689585 -0.929712 -3.138155
  C 3.198995 -1.058883 -3.228420
  H 2.697727 -0.280741 -3.802149
  H 6.193988 -1.600973 -1.655236
  H 0.792352 0.914052 0.992548
  H 0.670748 -0.831487 0.776804
  H 0.358065 0.226463 -0.589902
  H 3.986791 1.480676 -0.260996
  H 4.111544 0.473842 1.141699
  H 2.184506 -1.890451 -0.783502
  H 4.634964 -1.674190 0.233362
  H 5.143554 -1.533709 -3.916713
  H 5.032360 0.103729 -3.256347
  H 2.760711 -0.656584 -2.115641
  H 2.858278 -2.049798 -3.533815
 22
 52.757746
  C 1.009906 -0.031787 0.280127
  C 2.444869 0.012025 -0.056794
  C 3.387063 0.937775 0.585084
  H 2.871590 1.583983 1.291100
  C 2.951000 -1.006001 -1.075404
  C 4.389493 -1.353930 -0.854740
  C 5.228617 -1.325399 -1.882044
  C 4.652095 -0.922002 -3.210494
  C 3.171670 -1.078648 -3.098150
  H 2.583599 -0.359622 -3.666089
  H 6.281429 -1.517194 -1.786359
  H 0.769984 0.701625 1.045115
  H 0.722900 -1.016458 0.657430
  H 0.374981 0.153374 -0.588479
  H 3.918738 1.554120 -0.141854
  H 4.159722 0.397640 1.135253
  H 2.273141 -1.841687 -0.910834
  H 4.704279 -1.556299 0.155234
  H 5.034494 -1.553362 -4.015760
  H 4.952178 0.107150 -3.420390
  H 2.653920 -0.152074 -1.790638
  H 2.829379 -2.080646 -3.317801
 22
 36.797391
  C 1.015965 -0.071631 0.125238
  C 2.469734 -0.014770 -0.146889
  C 3.419599 0.878813 0.552546
  H 2.878220 1.497771 1.261693
  C 3.063121 -1.113898 -1.273647
  C 4.462000 -1.395066 -0.899311
  C 5.289586 -1.355943 -1.948291
  C 4.595335 -0.915543 -3.193802
  C 3.112452 -0.987688 -2.819432
  H 2.496762 -0.256569 -3.320203
  H 6.343062 -1.559992 -1.905147
  H 0.762576 0.641833 0.901717
  H 0.703787 -1.057145 0.474665
  H 0.417040 0.130242 -0.759553
  H 3.976046 1.511447 -0.130741
  H 4.172931 0.323489 1.115705
  H 2.368941 -1.907910 -1.018242
  H 4.742589 -1.573127 0.125699
  H 4.846535 -1.550655 -4.047178
  H 4.895916 0.102363 -3.449680
  H 2.609639 0.312435 -1.214182
  H 2.735786 -1.979975 -3.075680
 22
 45.701998
  C 0.954762 -0.008653 0.272770
  C 2.391686 0.141252 0.067194
  C 3.368723 1.000195 0.721983
  H 2.879019 1.617728 1.467743
  C 3.116594 -1.235082 -1.420700
  C 4.507159 -1.484146 -1.029207
  C 5.335696 -1.367150 -2.073996
  C 4.626721 -0.907757 -3.294347
  C 3.151650 -1.107012 -2.944337
  H 2.500280 -0.357626 -3.383411
  H 6.403689 -1.490735 -2.049264
  H 0.619349 0.660444 1.060706
  H 0.686321 -1.029917 0.572631
  H 0.385815 0.194616 -0.637391
  H 3.895387 1.638741 0.009257
  H 4.147043 0.424233 1.233478
  H 2.376843 -1.956059 -1.084845
  H 4.798694 -1.664056 -0.011988
  H 4.913687 -1.433391 -4.202610
  H 4.878588 0.144322 -3.443579
  H 2.648733 -0.067344 -1.044463
  H 2.824673 -2.082001 -3.313728
 22
 49.056475
  C 0.884866 0.053723 0.367905
  C 2.303367 0.253391 0.292311
  C 3.231952 1.149617 0.908818
  H 2.779070 1.802902 1.656229
  C 3.230883 -1.306618 -1.516686
  C 4.606165 -1.595662 -1.147028
  C 5.400286 -1.504483 -2.218009
  C 4.657191 -0.966538 -3.398006
  C 3.180881 -1.107477 -2.997204
  H 2.567547 -0.290730 -3.361059
  H 6.462140 -1.659503 -2.256992
  H 0.393264 0.707887 1.087346
  H 0.663922 -0.992346 0.606657
  H 0.426245 0.192910 -0.616325
  H 3.726279 1.763793 0.151394
  H 4.057346 0.585195 1.356789
  H 2.466974 -1.973566 -1.107012
  H 4.920572 -1.786779 -0.134335
  H 4.885070 -1.457730 -4.340397
  H 4.946772 0.086819 -3.511316
  H 2.840286 -0.280976 -0.756101
  H 2.791415 -2.033308 -3.426992
 22
 56.493172
  C 0.787414 0.158329 0.696603
  C 2.163133 0.399364 0.625196
  C 3.140055 1.131702 1.308426
  H 2.774547 1.668758 2.192313
  C 3.181562 -1.050243 -1.794184
  C 4.547850 -1.315950 -1.270489
  C 5.430944 -1.456001 -2.251230
  C 4.807514 -1.231389 -3.594112
  C 3.306846 -1.328442 -3.294980
  H 2.708315 -0.671487 -3.922124
  H 6.490088 -1.623720 -2.136111
  H 0.277318 0.653481 1.533532
  H 0.602758 -0.920850 0.735247
  H 0.317238 0.451405 -0.248806
  H 3.617187 1.837581 0.620574
  H 3.966049 0.470564 1.588577
  H 2.394155 -1.643692 -1.331425
  H 4.767839 -1.350273 -0.219677
  H 5.127994 -1.942581 -4.355938
  H 5.090139 -0.234241 -3.946171
  H 2.932003 0.015707 -1.574200
  H 2.974123 -2.354225 -3.471380
 22
 57.560029
  C 0.700424 0.475830 0.780693
  C 2.086615 0.463912 0.856341
  C 3.145860 0.773456 1.698647
  H 2.858018 1.149860 2.689896
  C 3.190910 -0.690068 -2.117684
  C 4.440099 -1.071441 -1.375640
  C 5.374573 -1.526265 -2.194067
  C 4.905588 -1.529885 -3.617656
  C 3.386526 -1.393895 -3.468327
  H 2.924753 -0.871353 -4.302785
  H 6.381452 -1.799903 -1.931810
  H 0.188141 0.853967 1.676280
  H 0.336086 -0.531368 0.542629
  H 0.388577 1.053647 -0.099620
  H 3.802691 1.500243 1.202852
  H 3.797014 -0.103199 1.808183
  H 2.248042 -0.954678 -1.648493
  H 4.543440 -0.952066 -0.314072
  H 5.188786 -2.428212 -4.166411
  H 5.345800 -0.677002 -4.144437
  H 3.170735 0.383206 -2.245864
  H 2.949730 -2.393310 -3.409993
 22
 58.612635
  C 0.639572 0.526967 0.959109
  C 2.025423 0.447639 1.011082
  C 3.093571 0.578127 1.891452
  H 2.817083 0.821811 2.926242
  C 3.210936 -0.490177 -2.407809
  C 4.446292 -0.631712 -1.564007
  C 5.404584 -1.259212 -2.226684
  C 4.935495 -1.689146 -3.581747
  C 3.411557 -1.587998 -3.450414
  H 2.914186 -1.402213 -4.396513
  H 6.414826 -1.423493 -1.895857
  H 0.153590 0.810805 1.902460
  H 0.236504 -0.431568 0.607290
  H 0.339423 1.216147 0.158426
  H 3.791206 1.333615 1.505598
  H 3.695364 -0.340520 1.871843
  H 2.246735 -0.509517 -1.903515
  H 4.512187 -0.263042 -0.558740
  H 5.258842 -2.695266 -3.850294
  H 5.333153 -1.008159 -4.340080
  H 3.277015 0.492723 -2.911076
  H 3.032328 -2.529443 -3.047947
 22
 59.345543
  C 0.566086 0.591799 1.146673
  C 1.947626 0.464766 1.207764
  C 3.024635 0.487269 2.085760
  H 2.767079 0.666292 3.138230
  C 3.240597 -0.428956 -2.640176
  C 4.462770 -0.382374 -1.769730
  C 5.442913 -1.085326 -2.309786
  C 4.983056 -1.775987 -3.561119
  C 3.453314 -1.715897 -3.429463
  H 2.939194 -1.752919 -4.387044
  H 6.459887 -1.151022 -1.962005
  H 0.074747 0.838693 2.097728
  H 0.143066 -0.339266 0.740940
  H 0.294038 1.327122 0.376368
  H 3.754299 1.235136 1.748686
  H 3.584972 -0.453491 1.992135
  H 2.282511 -0.295535 -2.140400
  H 4.488549 0.132154 -0.823832
  H 5.350544 -2.801092 -3.642312
  H 5.340625 -1.235632 -4.443154
  H 3.317676 0.424537 -3.352171
  H 3.120731 -2.567176 -2.833728
 22
 58.871956
  C 0.484232 0.585981 1.340710
  C 1.861337 0.479914 1.433322
  C 2.954975 0.472595 2.282747
  H 2.725114 0.600023 3.349717
  C 3.282263 -0.392135 -2.847505
  C 4.498575 -0.225685 -1.979311
  C 5.481356 -0.995126 -2.415620
  C 5.032647 -1.858079 -3.556320
  C 3.502709 -1.776378 -3.454997
  H 3.003723 -1.925997 -4.410127
  H 6.495731 -1.020257 -2.059380
  H -0.035150 0.801749 2.284685
  H 0.088849 -0.342401 0.905370
  H 0.213327 1.329333 0.578394
  H 3.668356 1.243459 1.963187
  H 3.530570 -0.451403 2.128520
  H 2.333343 -0.205393 -2.344024
  H 4.517387 0.413713 -1.115851
  H 5.399030 -2.879689 -3.477477
  H 5.393130 -1.451040 -4.508406
  H 3.370682 0.365417 -3.661628
  H 3.156953 -2.541378 -2.758030
