29

C 0.897619 0.036225 0.27116
C 2.391425 0.042963 0.091675
C 3.233957 -0.026184 1.35737
C 2.51645 -0.077997 2.706002
C 3.535482 -0.138236 3.840941
C 2.991432 0.115832 -1.115578
C 2.338768 0.210693 -2.483035
C 0.828867 0.20647 -2.709769
H 0.6280163515630962 0.2805920190290617 -3.758131982615054
C 4.447412 0.122099 -1.21009
C 5.183635 0.195514 -2.320017
O 6.543367 0.196542 -2.337128
H 0.622809 -0.025968 1.316242
H 0.448628 -0.816527 -0.231388
H 0.454008 0.946012 -0.124743
H 3.890998 0.849357 1.380981
H 3.8714 -0.913904 1.30925
H 1.878251 -0.961993 2.764643
H 1.895797 0.809941 2.84254
H 4.160997 -1.023788 3.749536
H 3.03078 -0.175481 4.80352
H 4.178749 0.73914 3.827008
H 2.745471 -0.621047 -3.068719
H 2.723436 1.130608 -2.937263
H 0.357411 1.051006 -2.210041
H 0.383296 -0.715484 -2.3391
H 4.996853 0.059763 -0.281317
H 4.799792 0.262574 -3.324035
H 6.880235 0.136251 -1.432943
