 20
 0.000000
  C 1.005937 0.117712 0.344707
  C 2.480632 0.119461 0.349427
  C 3.210601 0.597811 1.538017
  H 2.550565 0.918836 2.335985
  C 3.135185 -0.337729 -0.787305
  C 4.518723 -0.401518 -0.946946
  C 5.181076 -0.856736 -2.083508
  C 4.553909 -1.353617 -3.323742
  H 3.473087 -1.354134 -3.325490
  O 6.493780 -0.870208 -2.118373
  H 0.585725 0.491365 1.273114
  H 0.631445 -0.892201 0.171196
  H 0.631644 0.726169 -0.479890
  H 3.861024 1.430795 1.267008
  H 3.861259 -0.190500 1.919494
  H 2.512084 -0.666799 -1.606100
  H 5.142598 -0.072174 -0.125998
  H 4.918679 -2.364594 -3.511499
  H 4.918979 -0.752188 -4.157598
  H 6.906724 -0.541645 -1.297462
 20
 1.496286
  C 0.977910 0.233116 0.313367
  C 2.449915 0.154769 0.341381
  C 3.172197 0.482471 1.585358
  H 2.487319 0.713613 2.396540
  C 3.107801 -0.231981 -0.818476
  C 4.492136 -0.330905 -0.950581
  C 5.163932 -0.801765 -2.075583
  C 4.528199 -1.466598 -3.232526
  H 3.456808 -1.571271 -3.128611
  O 6.477398 -0.774016 -2.132341
  H 0.559991 0.539483 1.269646
  H 0.553419 -0.732799 0.031741
  H 0.652302 0.932671 -0.459724
  H 3.826168 1.342001 1.429427
  H 3.813054 -0.345886 1.891500
  H 2.491002 -0.451820 -1.676876
  H 5.105388 -0.063021 -0.101721
  H 4.978373 -2.448739 -3.367923
  H 4.762376 -0.905778 -4.136793
  H 6.895686 -0.094092 -1.573052
 20
 6.584427
  C 1.033422 0.225536 0.278753
  C 2.501140 0.108443 0.326845
  C 3.210430 0.357065 1.594806
  H 2.519857 0.549810 2.408967
  C 3.168707 -0.240189 -0.839285
  C 4.552988 -0.359377 -0.957567
  C 5.228261 -0.841142 -2.074288
  C 4.604717 -1.570347 -3.194545
  H 3.530773 -1.659023 -3.102534
  O 6.557909 -0.826768 -2.098939
  H 0.607509 0.502072 1.237677
  H 0.590335 -0.716198 -0.049780
  H 0.738865 0.962473 -0.470478
  H 3.874414 1.216904 1.493616
  H 3.842085 -0.490927 1.859716
  H 2.562424 -0.406819 -1.717581
  H 5.168536 -0.118001 -0.101204
  H 5.046686 -2.565627 -3.258117
  H 4.866378 -1.075015 -4.130311
  H 6.951521 0.051747 -1.958932
 20
 11.125588
  C 0.972647 0.277712 0.292331
  C 2.439616 0.166524 0.339019
  C 3.146879 0.355476 1.616287
  H 2.457601 0.510617 2.439833
  C 3.115253 -0.134688 -0.837962
  C 4.502260 -0.249978 -0.949176
  C 5.193560 -0.775495 -2.030180
  C 4.591079 -1.526128 -3.145193
  H 3.510958 -1.568342 -3.087863
  O 6.534258 -0.760754 -1.974786
  H 0.543004 0.508624 1.261376
  H 0.534949 -0.650619 -0.078556
  H 0.676487 1.044165 -0.426076
  H 3.812309 1.218019 1.551062
  H 3.782748 -0.500838 1.840015
  H 2.519141 -0.269332 -1.729506
  H 5.137299 0.092554 -0.143521
  H 4.994145 -2.540413 -3.143580
  H 4.900607 -1.090431 -4.095812
  H 6.965818 0.037752 -2.311343
 20
 8.108103
  C 1.041346 0.144785 0.261519
  C 2.510868 0.052649 0.312106
  C 3.212133 0.250064 1.589918
  H 2.519510 0.406770 2.409921
  C 3.190454 -0.249576 -0.854242
  C 4.591289 -0.358072 -0.955006
  C 5.294519 -0.886467 -2.029811
  C 4.707403 -1.589189 -3.181006
  H 3.625002 -1.604814 -3.149129
  O 6.614477 -0.852667 -1.915139
  H 0.607013 0.373848 1.228851
  H 0.616442 -0.791081 -0.105247
  H 0.736871 0.904775 -0.460491
  H 3.875091 1.114476 1.521677
  H 3.850791 -0.602166 1.819903
  H 2.597549 -0.382431 -1.750096
  H 5.226591 0.073594 -0.188408
  H 5.081632 -2.613725 -3.182045
  H 5.035947 -1.147505 -4.120543
  H 7.099081 -0.464695 -2.645573
 20
 14.514414
  C 0.934904 0.334734 0.328618
  C 2.400904 0.190669 0.321193
  C 3.142196 0.127709 1.592552
  H 2.478641 0.161326 2.450554
  C 3.052812 0.074730 -0.894132
  C 4.439009 -0.072062 -1.028693
  C 5.170630 -0.692917 -2.024285
  C 4.689210 -1.690834 -2.993106
  H 3.613974 -1.814228 -2.927095
  O 6.486286 -0.484721 -1.879749
  H 0.532153 0.390171 1.334626
  H 0.468039 -0.504817 -0.188520
  H 0.641484 1.224902 -0.230134
  H 3.837557 0.966551 1.652218
  H 3.751749 -0.773254 1.648347
  H 2.469303 0.185233 -1.798755
  H 5.177100 0.412695 -0.393425
  H 5.179160 -2.643865 -2.792636
  H 4.958062 -1.412035 -4.012444
  H 6.958072 -0.136559 -2.651998
 20
 27.095180
  C 0.928674 0.414459 0.377799
  C 2.384048 0.201360 0.286388
  C 3.168473 -0.077860 1.498706
  H 2.536239 -0.204701 2.370806
  C 2.986846 0.233893 -0.951008
  C 4.360775 0.062852 -1.148866
  C 5.133232 -0.667564 -2.024140
  C 4.783426 -1.836812 -2.851650
  H 3.721071 -2.048890 -2.784961
  O 6.423470 -0.293506 -1.888896
  H 0.569185 0.337732 1.398829
  H 0.395650 -0.315609 -0.235078
  H 0.665809 1.392652 -0.023014
  H 3.858163 0.746088 1.683786
  H 3.784345 -0.964820 1.371070
  H 2.377536 0.461596 -1.816309
  H 5.168989 0.673114 -0.724596
  H 5.351164 -2.704178 -2.519998
  H 5.041249 -1.660875 -3.892075
  H 6.901578 0.003265 -2.681946
 20
 51.718450
  C 0.898170 0.517523 0.498710
  C 2.326244 0.206864 0.298870
  C 3.171708 -0.170936 1.447389
  H 2.591621 -0.263806 2.360259
  C 2.848999 0.248219 -0.979710
  C 4.177524 -0.017310 -1.287506
  C 5.037840 -0.692341 -2.077063
  C 4.964445 -1.929398 -2.873104
  H 3.948374 -2.312061 -2.880810
  O 6.281816 -0.118733 -1.839830
  H 0.602970 0.421345 1.538827
  H 0.274799 -0.147448 -0.100462
  H 0.679573 1.529798 0.155978
  H 3.944161 0.582278 1.606853
  H 3.687623 -1.110432 1.254667
  H 2.208054 0.584587 -1.787174
  H 5.234170 0.585191 -0.934140
  H 5.629075 -2.683077 -2.453337
  H 5.278133 -1.739996 -3.899326
  H 6.748969 0.261388 -2.606330
 20
 65.411259
  C 0.889299 0.539963 0.544205
  C 2.305762 0.187895 0.296581
  C 3.172279 -0.234874 1.421023
  H 2.611839 -0.325316 2.346067
  C 2.794644 0.235144 -0.994547
  C 4.086837 -0.056888 -1.351961
  C 4.974566 -0.687351 -2.086770
  C 5.010437 -1.942072 -2.863539
  H 4.021022 -2.387029 -2.896138
  O 6.232326 -0.015208 -1.818782
  H 0.623742 0.439303 1.591649
  H 0.227209 -0.093169 -0.047128
  H 0.694012 1.565473 0.228626
  H 3.972940 0.488029 1.576012
  H 3.648183 -1.189141 1.198390
  H 2.141417 0.611373 -1.775049
  H 5.436258 0.601409 -1.056003
  H 5.706562 -2.645221 -2.408761
  H 5.340700 -1.748924 -3.883478
  H 6.666457 0.401533 -2.593651
 20
 54.794655
  C 0.891442 0.581525 0.573191
  C 2.293400 0.180629 0.292785
  C 3.165464 -0.301314 1.395117
  H 2.613856 -0.401143 2.324693
  C 2.764550 0.237150 -1.005822
  C 4.024844 -0.082366 -1.391772
  C 4.944946 -0.681507 -2.074374
  C 5.059084 -1.952471 -2.817071
  H 4.092962 -2.444707 -2.852678
  O 6.246412 0.042945 -1.828182
  H 0.640863 0.464701 1.623010
  H 0.194984 -0.013128 -0.019827
  H 0.728116 1.622186 0.288228
  H 3.989805 0.392886 1.561740
  H 3.607945 -1.263998 1.139771
  H 2.110703 0.648233 -1.767422
  H 5.723441 0.653344 -1.201587
  H 5.778478 -2.609295 -2.330692
  H 5.395160 -1.770052 -3.836268
  H 6.668012 0.415500 -2.635759
 20
 46.263511
  C 0.859062 0.606375 0.589553
  C 2.248424 0.174872 0.288678
  C 3.103185 -0.392580 1.364388
  H 2.544571 -0.524993 2.285995
  C 2.723282 0.284234 -1.007516
  C 3.957347 -0.070235 -1.425235
  C 4.919564 -0.645384 -2.060391
  C 5.069142 -1.956088 -2.735017
  H 4.121817 -2.484461 -2.723420
  O 6.257544 0.076722 -1.952757
  H 0.611093 0.457479 1.636293
  H 0.142843 0.051611 -0.018640
  H 0.722193 1.661590 0.347221
  H 3.946747 0.266211 1.571579
  H 3.514431 -1.354786 1.059700
  H 2.078094 0.744894 -1.747318
  H 6.024205 0.751760 -1.279051
  H 5.818238 -2.556232 -2.222360
  H 5.377800 -1.821867 -3.769462
  H 6.570629 0.464974 -2.802228
 20
 45.194953
  C 0.906038 0.751284 0.700795
  C 2.199665 0.159625 0.287438
  C 3.046371 -0.546864 1.277535
  H 2.545414 -0.641449 2.235931
  C 2.591060 0.262925 -1.035367
  C 3.728672 -0.265002 -1.549383
  C 4.734731 -0.778588 -2.104764
  C 5.233915 -2.002802 -2.721746
  H 4.428041 -2.731661 -2.756076
  O 6.150962 0.239924 -1.996780
  H 0.707922 0.592268 1.756204
  H 0.087999 0.321097 0.121420
  H 0.893064 1.823443 0.499400
  H 3.982209 -0.010260 1.432780
  H 3.312769 -1.538644 0.912941
  H 1.945137 0.788404 -1.727993
  H 5.950225 0.875675 -1.288028
  H 6.057106 -2.406177 -2.136223
  H 5.578985 -1.817385 -3.735964
  H 6.338675 0.710301 -2.830856
 20
 44.059247
  C 1.001755 0.828573 0.783795
  C 2.198944 0.118431 0.299985
  C 3.029715 -0.663574 1.233895
  H 2.585102 -0.718048 2.222471
  C 2.520637 0.194370 -1.045625
  C 3.586243 -0.445035 -1.612172
  C 4.557301 -0.979939 -2.156989
  C 5.317744 -2.026641 -2.770235
  H 4.676537 -2.904293 -2.859815
  O 6.124855 0.421459 -1.971061
  H 0.846739 0.691943 1.849135
  H 0.116425 0.483670 0.247279
  H 1.079393 1.895780 0.569268
  H 4.020587 -0.217033 1.323766
  H 3.191739 -1.670652 0.850180
  H 1.882230 0.763879 -1.709313
  H 5.805681 0.969936 -1.246129
  H 6.179282 -2.277566 -2.155065
  H 5.653618 -1.737539 -3.763189
  H 6.315452 0.991426 -2.727959
 20
 43.924592
  C 1.003003 0.820839 0.799685
  C 2.188383 0.114797 0.293829
  C 3.085443 -0.595950 1.217480
  H 2.712296 -0.586872 2.236362
  C 2.439091 0.130692 -1.072028
  C 3.490446 -0.516344 -1.665959
  C 4.390958 -1.128275 -2.234616
  C 5.265944 -2.037194 -2.881520
  H 4.708505 -2.951717 -3.098097
  O 6.218542 0.441238 -1.875278
  H 0.883210 0.711160 1.872471
  H 0.103688 0.462926 0.295311
  H 1.064177 1.883272 0.553876
  H 4.078880 -0.146421 1.203624
  H 3.231101 -1.625405 0.888019
  H 1.758031 0.656330 -1.729570
  H 5.801943 0.791949 -1.083380
  H 6.114989 -2.275302 -2.244520
  H 5.613277 -1.626951 -3.828150
  H 6.637526 1.176555 -2.335517
 20
 41.342197
  C 1.112489 0.944856 0.850271
  C 2.156358 0.052618 0.335446
  C 2.783188 -0.950477 1.209098
  H 2.308255 -0.998770 2.184255
  C 2.540923 0.177029 -0.994998
  C 3.515488 -0.590706 -1.578366
  C 4.381066 -1.269874 -2.114023
  C 5.349634 -2.102333 -2.721969
  H 5.120038 -3.150185 -2.523267
  O 6.186828 0.804710 -2.230826
  H 0.885822 0.757204 1.893656
  H 0.202062 0.839979 0.258653
  H 1.411073 1.987268 0.727121
  H 3.842234 -0.716941 1.343448
  H 2.767703 -1.934768 0.738732
  H 2.052174 0.909501 -1.624538
  H 6.036126 1.336519 -1.443530
  H 6.320359 -1.893336 -2.266207
  H 5.411039 -1.918644 -3.790764
  H 6.406575 1.415679 -2.940169
