 26
 0.000000
  C 0.907540 0.036236 0.293650
  C 2.395019 0.047491 0.071989
  C 3.219595 -0.026690 1.334044
  H 2.637416 -0.065959 2.246823
  C 2.995098 0.120953 -1.131029
  C 2.352167 0.213431 -2.501658
  C 0.840455 0.208478 -2.712545
  C 0.531731 0.309255 -4.204460
  C 4.452963 0.124181 -1.217056
  C 5.196584 0.197076 -2.322002
  O 6.555819 0.194759 -2.330091
  H 0.679472 -0.030745 1.354119
  H 0.441538 -0.815548 -0.195258
  H 0.445611 0.945554 -0.082780
  H 3.871029 0.846783 1.400519
  H 3.854832 -0.912458 1.307888
  H 2.756736 -0.620278 -3.086103
  H 2.736343 1.132132 -2.958797
  H 0.376112 1.054442 -2.207842
  H 0.401039 -0.712563 -2.331597
  H 0.939441 1.228374 -4.620282
  H -0.543180 0.306339 -4.371168
  H 0.963401 -0.531017 -4.744410
  H 4.997865 0.059780 -0.285567
  H 4.820184 0.266508 -3.328922
  H 6.886130 0.132486 -1.424346
 26
 -0.307877
  C 0.924938 0.192305 0.301726
  C 2.404393 0.071867 0.056062
  C 3.212681 -0.145309 1.314683
  H 2.567676 -0.440663 2.138021
  C 3.002203 0.135335 -1.147704
  C 2.362782 0.254463 -2.517306
  C 0.851199 0.166836 -2.711564
  C 0.514304 0.249692 -4.198041
  C 4.460987 0.138809 -1.224112
  C 5.213637 0.173068 -2.325699
  O 6.572655 0.211324 -2.322915
  H 0.717579 0.170659 1.368794
  H 0.370819 -0.621913 -0.158491
  H 0.538995 1.131454 -0.087972
  H 3.733199 0.766489 1.611064
  H 3.949028 -0.933203 1.171825
  H 2.800925 -0.544819 -3.123534
  H 2.701894 1.202093 -2.950022
  H 0.345351 0.982219 -2.197966
  H 0.476787 -0.779884 -2.322258
  H 0.863714 1.190680 -4.618155
  H -0.560966 0.185960 -4.349196
  H 0.985363 -0.564111 -4.745707
  H 4.996815 0.154055 -0.284822
  H 4.845378 0.175107 -3.338204
  H 6.895886 0.211591 -1.412026
 26
 0.020074
  C 0.943100 0.332004 0.312683
  C 2.405919 0.102697 0.049375
  C 3.183379 -0.260913 1.291131
  H 2.534809 -0.798184 1.980553
  C 3.008011 0.144287 -1.153808
  C 2.367300 0.284360 -2.520923
  C 0.858204 0.138917 -2.701030
  C 0.502270 0.191238 -4.184294
  C 4.467589 0.164068 -1.226120
  C 5.226404 0.144576 -2.323278
  O 6.582794 0.234486 -2.317456
  H 0.760651 0.350705 1.384814
  H 0.320275 -0.449964 -0.115087
  H 0.620878 1.287676 -0.094783
  H 3.563066 0.621566 1.806592
  H 4.008015 -0.920512 1.039008
  H 2.826700 -0.489255 -3.143099
  H 2.672153 1.250320 -2.937945
  H 0.326310 0.939438 -2.190986
  H 0.527254 -0.817312 -2.294442
  H 0.812352 1.139526 -4.618584
  H -0.571447 0.086159 -4.322864
  H 0.997267 -0.610811 -4.728208
  H 4.995588 0.268449 -0.287164
  H 4.865450 0.058183 -3.334730
  H 6.898952 0.315531 -1.408215
 26
 0.779857
  C 0.974125 0.466505 0.320561
  C 2.409159 0.121666 0.036776
  C 3.142041 -0.373527 1.255980
  H 2.516149 -1.116036 1.752290
  C 3.021325 0.167823 -1.161887
  C 2.373830 0.333801 -2.522907
  C 0.869719 0.126224 -2.684450
  C 0.495017 0.123146 -4.163801
  C 4.480398 0.194036 -1.229875
  C 5.245116 0.130222 -2.320149
  O 6.598061 0.259415 -2.315711
  H 0.830892 0.544722 1.396447
  H 0.280661 -0.285882 -0.049516
  H 0.712239 1.423326 -0.124593
  H 3.349556 0.420208 1.972375
  H 4.056784 -0.873367 0.958685
  H 2.853981 -0.407950 -3.166807
  H 2.639415 1.319264 -2.920125
  H 0.311628 0.918596 -2.190116
  H 0.582871 -0.829909 -2.244646
  H 0.764575 1.069811 -4.627687
  H -0.575583 -0.025245 -4.286013
  H 1.013085 -0.674999 -4.691731
  H 4.999427 0.361127 -0.294168
  H 4.890381 -0.022024 -3.326025
  H 6.907714 0.400364 -1.411417
 26
 4.257412
  C 1.034929 0.669790 0.329550
  C 2.396055 0.117915 0.021148
  C 3.072528 -0.549487 1.187764
  H 2.466570 -1.419082 1.456987
  C 3.028152 0.131500 -1.172870
  C 2.381460 0.319558 -2.531176
  C 0.877772 0.087500 -2.660800
  C 0.473720 0.013651 -4.130174
  C 4.484002 0.218466 -1.217681
  C 5.266771 0.189456 -2.301185
  O 6.610543 0.403700 -2.283865
  H 0.939961 0.787702 1.407084
  H 0.222115 0.022971 0.001047
  H 0.906697 1.643462 -0.137473
  H 3.170808 0.076897 2.070138
  H 4.016377 -0.955851 0.839570
  H 2.867049 -0.406368 -3.188421
  H 2.624120 1.314599 -2.919116
  H 0.321550 0.896394 -2.190999
  H 0.610122 -0.848558 -2.167412
  H 0.721638 0.942163 -4.640453
  H -0.597058 -0.153152 -4.224137
  H 0.991741 -0.800682 -4.632827
  H 4.979772 0.398532 -0.270800
  H 4.928309 0.024418 -3.310833
  H 6.899711 0.574279 -1.377788
 26
 13.626319
  C 1.133163 0.898183 0.350775
  C 2.371122 0.129781 0.011512
  C 2.991260 -0.703543 1.096910
  H 2.358902 -1.586797 1.235741
  C 3.028421 0.072439 -1.183750
  C 2.393447 0.248313 -2.550589
  C 0.897435 -0.037936 -2.649352
  C 0.443931 -0.069239 -4.105028
  C 4.472049 0.258066 -1.188412
  C 5.275530 0.309794 -2.257564
  O 6.602555 0.610583 -2.205921
  H 1.055666 0.972190 1.433395
  H 0.212177 0.435705 -0.006583
  H 1.192416 1.898693 -0.072259
  H 3.127080 -0.218938 2.056930
  H 3.870908 -1.143927 0.618625
  H 2.904382 -0.460433 -3.206815
  H 2.593554 1.252086 -2.940022
  H 0.331855 0.729571 -2.125006
  H 0.681151 -1.000633 -2.180802
  H 0.645112 0.885370 -4.586812
  H -0.623785 -0.267127 -4.169358
  H 0.969319 -0.846950 -4.655845
  H 4.931808 0.429365 -0.221483
  H 4.963552 0.155197 -3.277180
  H 6.869318 0.732246 -1.285612
 26
 33.102539
  C 1.234765 1.051410 0.377844
  C 2.337781 0.126973 0.003092
  C 2.907401 -0.866323 0.968301
  H 2.356541 -1.816439 0.964779
  C 3.020751 0.034610 -1.173307
  C 2.411635 0.198803 -2.548366
  C 0.904310 -0.032955 -2.623314
  C 0.442725 -0.197619 -4.067714
  C 4.444342 0.303412 -1.142223
  C 5.261554 0.428263 -2.197534
  O 6.578579 0.790719 -2.110341
  H 1.152722 1.077882 1.462317
  H 0.259712 0.747694 -0.013862
  H 1.443685 2.052574 0.004350
  H 3.063848 -0.531326 1.984753
  H 3.676112 -1.254271 0.256401
  H 2.898719 -0.544617 -3.184901
  H 2.646016 1.184615 -2.964849
  H 0.373363 0.810013 -2.179666
  H 0.647606 -0.930971 -2.055849
  H 0.669887 0.697017 -4.643914
  H -0.630719 -0.369346 -4.110293
  H 0.943016 -1.041970 -4.537601
  H 4.873804 0.459999 -0.158127
  H 4.966699 0.314227 -3.227909
  H 6.804486 0.966905 -1.179841
 26
 59.251305
  C 1.313579 1.179320 0.423694
  C 2.321694 0.155435 0.037597
  C 2.815651 -0.923436 0.910503
  H 2.349701 -1.906921 0.800123
  C 3.018590 -0.014196 -1.155096
  C 2.415380 0.143093 -2.541478
  C 0.915792 -0.132814 -2.622080
  C 0.450188 -0.237589 -4.070032
  C 4.438660 0.326823 -1.112458
  C 5.250297 0.499652 -2.159363
  O 6.551810 0.902116 -2.062720
  H 1.223555 1.197601 1.507965
  H 0.322791 0.959737 0.018449
  H 1.606874 2.164990 0.067024
  H 2.977808 -0.695741 1.958500
  H 3.517122 -1.259441 -0.036433
  H 2.927052 -0.572627 -3.189858
  H 2.621893 1.143443 -2.937769
  H 0.362534 0.668824 -2.133048
  H 0.690081 -1.065193 -2.098808
  H 0.652810 0.689423 -4.602382
  H -0.619009 -0.432596 -4.116023
  H 0.967602 -1.045857 -4.582963
  H 4.850057 0.489453 -0.121983
  H 4.969798 0.367554 -3.190130
  H 6.776315 1.033714 -1.133285
 26
 74.305049
  C 1.368591 1.240046 0.436453
  C 2.307717 0.146785 0.065410
  C 2.687946 -0.933079 0.889901
  H 2.304446 -1.921940 0.680330
  C 3.042242 -0.046640 -1.156406
  C 2.420066 0.116460 -2.532530
  C 0.923839 -0.183080 -2.593854
  C 0.437650 -0.276486 -4.035750
  C 4.475257 0.329899 -1.106245
  C 5.272651 0.549965 -2.148777
  O 6.577448 0.945693 -2.051480
  H 1.242116 1.255729 1.517819
  H 0.385509 1.079245 -0.006518
  H 1.731440 2.211639 0.101461
  H 2.783574 -0.784763 1.969151
  H 3.464683 -1.203687 -0.340886
  H 2.931283 -0.579763 -3.204136
  H 2.609000 1.125951 -2.910841
  H 0.364936 0.603212 -2.086877
  H 0.721324 -1.125192 -2.078837
  H 0.616737 0.660527 -4.558771
  H -0.628754 -0.488480 -4.067903
  H 0.960219 -1.069244 -4.567099
  H 4.886192 0.461569 -0.110377
  H 4.982493 0.451243 -3.180422
  H 6.811418 1.044762 -1.119722
 26
 57.774270
  C 1.461384 1.304147 0.434046
  C 2.298101 0.130889 0.080216
  C 2.495266 -0.950104 0.864253
  H 2.222467 -1.940278 0.548940
  C 3.086802 -0.074093 -1.180310
  C 2.427428 0.097462 -2.525589
  C 0.937473 -0.244955 -2.544525
  C 0.409624 -0.336072 -3.970845
  C 4.531164 0.335404 -1.105401
  C 5.312771 0.615020 -2.127474
  O 6.616675 1.024841 -2.020430
  H 1.306240 1.332069 1.509205
  H 0.489722 1.220661 -0.040783
  H 1.916483 2.243143 0.119964
  H 2.485154 -0.882122 1.953958
  H 3.375567 -1.113964 -0.645138
  H 2.930201 -0.575941 -3.222216
  H 2.585263 1.125985 -2.889563
  H 0.372716 0.517898 -2.004727
  H 0.783090 -1.197707 -2.034912
  H 0.546608 0.611047 -4.485933
  H -0.651278 -0.575155 -3.972564
  H 0.938180 -1.107773 -4.529691
  H 4.933804 0.430763 -0.099173
  H 5.016612 0.549021 -3.164867
  H 6.861982 1.080708 -1.072073
 26
 36.649778
  C 1.587470 1.324998 0.400713
  C 2.349788 0.079938 0.127579
  C 2.486749 -0.949875 0.977555
  H 2.189686 -1.943394 0.690430
  C 3.063583 -0.212094 -1.174862
  C 2.422951 0.015487 -2.525848
  C 0.926638 -0.278951 -2.568724
  C 0.411435 -0.313848 -4.003177
  C 4.484901 0.304663 -1.094337
  C 5.242506 0.683762 -2.111897
  O 6.518111 1.151671 -2.001781
  H 1.422305 1.443750 1.471038
  H 0.615927 1.236786 -0.082192
  H 2.080450 2.218048 0.012141
  H 2.429133 -0.841496 2.057535
  H 3.350749 -1.241432 -0.845861
  H 2.920680 -0.629218 -3.253863
  H 2.601247 1.049486 -2.835142
  H 0.377958 0.490452 -2.024036
  H 0.728219 -1.238052 -2.086055
  H 0.576079 0.644983 -4.489698
  H -0.654374 -0.529260 -4.022321
  H 0.925403 -1.081609 -4.577590
  H 4.888916 0.359485 -0.091533
  H 4.931569 0.672780 -3.142799
  H 6.777430 1.161264 -1.071353
 26
 19.310396
  C 1.724517 1.383431 0.358055
  C 2.360208 0.056720 0.107047
  C 2.341333 -0.956858 0.969649
  H 2.192936 -1.978009 0.663047
  C 3.088256 -0.242560 -1.190271
  C 2.409398 -0.005257 -2.530543
  C 0.921949 -0.354341 -2.544947
  C 0.366155 -0.343132 -3.964304
  C 4.497187 0.295276 -1.094258
  C 5.232777 0.755581 -2.092579
  O 6.510656 1.209561 -1.974778
  H 1.474057 1.496635 1.411485
  H 0.802144 1.432998 -0.215797
  H 2.358789 2.215326 0.050091
  H 2.166673 -0.821601 2.030961
  H 3.299761 -1.304770 -0.956570
  H 2.904195 -0.641488 -3.268781
  H 2.556222 1.031879 -2.838729
  H 0.359440 0.359136 -1.943203
  H 0.781331 -1.344634 -2.106408
  H 0.489370 0.640340 -4.413112
  H -0.693245 -0.589439 -3.962912
  H 0.885434 -1.069299 -4.586083
  H 4.910085 0.298474 -0.091874
  H 4.910122 0.794253 -3.120012
  H 6.771403 1.197178 -1.045022
 26
 6.940828
  C 1.833126 1.390598 0.261487
  C 2.368644 0.006177 0.088630
  C 2.263264 -0.935376 1.013071
  H 2.303511 -1.986208 0.781709
  C 3.089739 -0.341926 -1.196819
  C 2.397314 -0.022910 -2.518095
  C 0.919825 -0.413839 -2.541827
  C 0.342044 -0.305174 -3.948359
  C 4.475595 0.248116 -1.079501
  C 5.193378 0.770351 -2.056563
  O 6.449607 1.273904 -1.920717
  H 1.586462 1.582831 1.303423
  H 0.924639 1.495786 -0.327124
  H 2.542743 2.142915 -0.081784
  H 1.976353 -0.726623 2.031048
  H 3.259861 -1.423611 -1.085284
  H 2.901670 -0.586239 -3.306730
  H 2.509168 1.038701 -2.745094
  H 0.344161 0.228645 -1.876001
  H 0.814824 -1.439685 -2.181759
  H 0.423231 0.716067 -4.315023
  H -0.707916 -0.588909 -3.954229
  H 0.877067 -0.957688 -4.635039
  H 4.892970 0.215885 -0.079283
  H 4.863505 0.844625 -3.080160
  H 6.727909 1.201934 -0.999055
 26
 2.261585
  C 1.981345 1.439363 0.213087
  C 2.337977 -0.009807 0.058637
  C 2.069287 -0.910702 0.978971
  H 2.226072 -1.964665 0.826827
  C 3.104931 -0.393159 -1.200754
  C 2.387668 -0.027552 -2.505136
  C 0.948108 -0.541083 -2.539364
  C 0.310548 -0.324555 -3.906821
  C 4.476740 0.226985 -1.074571
  C 5.168824 0.822262 -2.037319
  O 6.411944 1.356478 -1.893049
  H 1.676084 1.659544 1.233371
  H 1.156840 1.690363 -0.451547
  H 2.824550 2.076184 -0.051415
  H 1.716271 -0.625536 1.990477
  H 3.252802 -1.492073 -1.158883
  H 2.928774 -0.483619 -3.337283
  H 2.404792 1.054180 -2.646453
  H 0.348828 -0.036748 -1.780324
  H 0.944298 -1.607638 -2.300245
  H 0.296600 0.734128 -4.157593
  H -0.713018 -0.692235 -3.914944
  H 0.869691 -0.850278 -4.678173
  H 4.912393 0.149033 -0.083617
  H 4.818294 0.943965 -3.049844
  H 6.712049 1.235513 -0.983114
 26
 -0.188200
  C 2.043989 1.486361 0.161953
  C 2.337856 0.019511 0.046174
  C 1.970818 -0.837569 0.987484
  H 2.158872 -1.894721 0.931115
  C 3.121659 -0.392520 -1.178522
  C 2.390773 -0.043801 -2.480056
  C 0.982165 -0.633709 -2.522610
  C 0.311619 -0.384275 -3.868138
  C 4.495686 0.217463 -1.076858
  C 5.158623 0.843309 -2.036140
  O 6.405461 1.371785 -1.909853
  H 1.705803 1.738696 1.163817
  H 1.264815 1.773120 -0.543266
  H 2.932256 2.071335 -0.071059
  H 1.432940 -0.467601 1.845674
  H 3.240102 -1.479944 -1.145607
  H 2.959790 -0.448320 -3.319782
  H 2.342741 1.039673 -2.597751
  H 0.372537 -0.199160 -1.728360
  H 1.038339 -1.708986 -2.337654
  H 0.240096 0.683154 -4.066645
  H -0.692029 -0.802905 -3.879631
  H 0.883707 -0.842935 -4.671856
  H 4.961818 0.104123 -0.103485
  H 4.776294 1.005129 -3.031123
  H 6.735960 1.211133 -1.016900
