 22
 0.000000
  C 0.999098 0.153939 0.434168
  C 2.470828 0.138612 0.395948
  C 3.246058 0.604322 1.555043
  H 2.622855 0.934877 2.378197
  C 3.070913 -0.329944 -0.770535
  C 4.450983 -0.419434 -0.993901
  C 5.100922 -0.870273 -2.118120
  C 4.626080 -1.387616 -3.407914
  C 3.142578 -1.510867 -3.715181
  H 3.015802 -1.912422 -4.716441
  H 6.183345 -0.853347 -2.076368
  H 0.609376 0.531765 1.374571
  H 0.608280 -0.851624 0.270703
  H 0.608133 0.766896 -0.379507
  H 3.903183 1.423951 1.258201
  H 3.903357 -0.192724 1.907679
  H 2.401774 -0.644777 -1.554161
  H 5.094975 -0.095597 -0.187203
  H 5.099429 -2.371030 -3.533991
  H 5.099534 -0.764008 -4.178677
  H 2.653696 -0.540247 -3.681034
  H 2.653770 -2.188957 -3.019854
 22
 -0.059462
  C 0.994081 0.068680 0.511992
  C 2.459088 0.116559 0.386292
  C 3.257098 0.717660 1.467612
  H 2.628556 1.138229 2.246169
  C 3.038740 -0.420357 -0.759008
  C 4.421964 -0.522535 -0.960955
  C 5.091350 -0.978121 -2.072344
  C 4.638463 -1.390109 -3.404803
  C 3.163289 -1.397639 -3.766278
  H 3.053706 -1.699087 -4.805361
  H 6.169675 -1.026068 -1.974128
  H 0.642945 0.473421 1.455360
  H 0.637979 -0.957003 0.402548
  H 0.529601 0.622899 -0.306311
  H 3.912535 1.498243 1.081367
  H 3.906765 -0.034250 1.919135
  H 2.367842 -0.800471 -1.510971
  H 5.047507 -0.217686 -0.131969
  H 5.063208 -2.387520 -3.584838
  H 5.181976 -0.754150 -4.118261
  H 2.726096 -0.408103 -3.659839
  H 2.611295 -2.110037 -3.158798
 22
 1.832131
  C 0.985076 -0.028105 0.618552
  C 2.431954 0.036140 0.358074
  C 3.269667 0.855063 1.259850
  H 2.658966 1.379224 1.990880
  C 2.977593 -0.661662 -0.709253
  C 4.361342 -0.713384 -0.924923
  C 5.079153 -1.167966 -2.001311
  C 4.677267 -1.360303 -3.398660
  C 3.228031 -1.131553 -3.793973
  H 3.122540 -1.268844 -4.867195
  H 6.131332 -1.358448 -1.824561
  H 0.684325 0.587191 1.459500
  H 0.684990 -1.062638 0.800275
  H 0.423583 0.277293 -0.266880
  H 3.843634 1.597849 0.708555
  H 3.963934 0.225095 1.816770
  H 2.311462 -1.227809 -1.339774
  H 4.941436 -0.316004 -0.094818
  H 4.988554 -2.370947 -3.695914
  H 5.328917 -0.702847 -3.990856
  H 2.908348 -0.121009 -3.550397
  H 2.568576 -1.842575 -3.306651
 22
 5.134343
  C 0.976725 -0.003933 0.700061
  C 2.411880 0.012947 0.331145
  C 3.281791 0.909163 1.147428
  H 2.690569 1.473084 1.866729
  C 2.947006 -0.750085 -0.694066
  C 4.332457 -0.773463 -0.920010
  C 5.066627 -1.258260 -1.984413
  C 4.687158 -1.397551 -3.395257
  C 3.259867 -1.074627 -3.799838
  H 3.158453 -1.173833 -4.877583
  H 6.106051 -1.501445 -1.782712
  H 0.733476 0.713452 1.482445
  H 0.699013 -1.006621 1.033953
  H 0.339350 0.178805 -0.177452
  H 3.808456 1.628120 0.524735
  H 4.004455 0.337045 1.723438
  H 2.292026 -1.393359 -1.263528
  H 4.907268 -0.309875 -0.097988
  H 4.952462 -2.415781 -3.717427
  H 5.379225 -0.754496 -3.955153
  H 3.002344 -0.051808 -3.527135
  H 2.550144 -1.752438 -3.341877
 22
 14.725411
  C 0.939257 -0.000313 0.802717
  C 2.363436 -0.099135 0.318252
  C 3.306130 0.867935 0.959515
  H 2.747238 1.496696 1.662031
  C 2.838265 -0.956254 -0.637053
  C 4.215374 -0.922172 -0.935619
  C 5.040812 -1.341453 -1.939962
  C 4.776188 -1.338290 -3.385988
  C 3.376893 -0.909891 -3.824995
  H 3.309747 -0.940468 -4.909110
  H 6.041933 -1.669870 -1.664431
  H 0.784984 0.850959 1.493069
  H 0.644716 -0.940263 1.302595
  H 0.233674 0.089993 -0.039171
  H 3.746130 1.571172 0.257254
  H 4.022429 0.373733 1.617123
  H 2.187027 -1.687151 -1.094617
  H 4.736673 -0.279574 -0.122853
  H 4.997822 -2.349791 -3.766496
  H 5.535696 -0.686791 -3.844143
  H 3.155327 0.109078 -3.499255
  H 2.615916 -1.580327 -3.425789
 22
 27.885604
  C 0.959427 0.040241 0.815543
  C 2.327442 -0.161231 0.291007
  C 3.355258 0.821629 0.773960
  H 2.828031 1.528212 1.439559
  C 2.747176 -1.138832 -0.574266
  C 4.102699 -1.122883 -0.918921
  C 5.005142 -1.432851 -1.887950
  C 4.825442 -1.268090 -3.344999
  C 3.436205 -0.814426 -3.772550
  H 3.386609 -0.741741 -4.855888
  H 5.992936 -1.762933 -1.583793
  H 0.861185 0.965412 1.378709
  H 0.683510 -0.794494 1.466291
  H 0.224456 0.040903 0.005510
  H 3.728023 1.497264 0.012343
  H 4.032085 0.418602 1.528393
  H 2.082524 -1.909714 -0.930119
  H 4.537651 -0.334913 -0.146121
  H 5.068678 -2.229471 -3.814290
  H 5.581347 -0.558169 -3.695588
  H 3.199125 0.164186 -3.358704
  H 2.680259 -1.521872 -3.442297
 22
 55.227304
  C 0.983059 0.058466 0.941332
  C 2.277143 -0.192349 0.271812
  C 3.429952 0.758979 0.504194
  H 3.012513 1.602165 1.103845
  C 2.590429 -1.253719 -0.535013
  C 3.907808 -1.330797 -0.958356
  C 4.903620 -1.513602 -1.815916
  C 4.865481 -1.222878 -3.281226
  C 3.521301 -0.699820 -3.777849
  H 3.563376 -0.520774 -4.848724
  H 5.850569 -1.896695 -1.465693
  H 0.964154 1.017677 1.456890
  H 0.776641 -0.732611 1.670554
  H 0.160902 0.036144 0.233016
  H 3.759858 1.313061 -0.377238
  H 4.108501 0.483166 1.321113
  H 1.883815 -2.028371 -0.769321
  H 4.341193 -0.306795 -0.033306
  H 5.120021 -2.152289 -3.796050
  H 5.652740 -0.510340 -3.514484
  H 3.261979 0.231475 -3.291330
  H 2.726925 -1.427435 -3.581993
 22
 59.290555
  C 1.004296 0.025284 1.036819
  C 2.282429 -0.162600 0.303087
  C 3.437544 0.809726 0.456287
  H 3.071674 1.659563 1.068568
  C 2.526022 -1.267806 -0.502204
  C 3.711346 -1.463917 -1.111476
  C 4.746241 -1.694191 -1.852116
  C 4.896263 -1.297536 -3.300401
  C 3.650290 -0.641711 -3.880464
  H 3.807369 -0.403178 -4.929832
  H 5.623630 -2.186159 -1.441678
  H 0.933945 1.007147 1.496037
  H 0.895252 -0.725522 1.823765
  H 0.147134 -0.101993 0.374458
  H 3.660173 1.391098 -0.459144
  H 4.148432 0.644538 1.336959
  H 1.763923 -2.025574 -0.617954
  H 4.281902 0.062144 0.156555
  H 5.135779 -2.202468 -3.865983
  H 5.754536 -0.626203 -3.395638
  H 3.410418 0.277760 -3.353987
  H 2.797234 -1.312771 -3.807256
 22
 60.800345
  C 1.034077 -0.041406 1.088944
  C 2.299888 -0.186878 0.320323
  C 3.400536 0.856182 0.448508
  H 2.933291 1.724948 0.946107
  C 2.512547 -1.283188 -0.507911
  C 3.639751 -1.521453 -1.196050
  C 4.691270 -1.753499 -1.906409
  C 4.907853 -1.300622 -3.329889
  C 3.715838 -0.553519 -3.911813
  H 3.917275 -0.271249 -4.942280
  H 5.525890 -2.314373 -1.495112
  H 0.977561 0.904325 1.619133
  H 0.927771 -0.845722 1.820100
  H 0.166189 -0.112662 0.432016
  H 3.706464 1.257823 -0.527750
  H 4.145373 0.922695 1.352714
  H 1.717099 -2.013075 -0.598023
  H 4.255966 0.085758 0.553706
  H 5.118972 -2.187125 -3.935072
  H 5.800563 -0.669923 -3.365348
  H 3.506514 0.349049 -3.345305
  H 2.828688 -1.182297 -3.897013
 22
 63.665604
  C 1.074006 -0.066342 1.154690
  C 2.308312 -0.202794 0.340877
  C 3.400075 0.919897 0.405662
  H 2.830943 1.764934 0.811129
  C 2.512004 -1.288411 -0.500288
  C 3.628187 -1.529933 -1.205496
  C 4.677066 -1.776538 -1.915365
  C 4.913017 -1.307202 -3.329922
  C 3.746306 -0.514167 -3.904337
  H 3.962433 -0.218716 -4.928364
  H 5.492974 -2.367010 -1.508699
  H 1.043885 0.861788 1.715557
  H 0.977601 -0.892009 1.862375
  H 0.188959 -0.105578 0.517104
  H 3.723298 1.134654 -0.616721
  H 4.292577 1.188310 1.101860
  H 1.706153 -2.006624 -0.590647
  H 3.971841 0.026077 0.841259
  H 5.099799 -2.189079 -3.949123
  H 5.824659 -0.703603 -3.349858
  H 3.560616 0.384362 -3.322058
  H 2.840855 -1.116437 -3.906388
 22
 61.481584
  C 1.140996 -0.086238 1.228791
  C 2.337069 -0.222133 0.364627
  C 3.427018 0.991897 0.384281
  H 2.804709 1.805483 0.768313
  C 2.495175 -1.302660 -0.510472
  C 3.583279 -1.543249 -1.251512
  C 4.653521 -1.773789 -1.929001
  C 4.936068 -1.287130 -3.326457
  C 3.788241 -0.487759 -3.928742
  H 4.038983 -0.178082 -4.940339
  H 5.452567 -2.371603 -1.501547
  H 1.139438 0.834506 1.802502
  H 1.061443 -0.920029 1.929297
  H 0.237600 -0.108810 0.618588
  H 3.719689 1.187374 -0.646396
  H 4.313155 1.212278 1.041084
  H 1.670820 -2.001013 -0.585989
  H 3.674806 -0.087522 0.795328
  H 5.145539 -2.159898 -3.950749
  H 5.846611 -0.682797 -3.305335
  H 3.581787 0.402720 -3.341038
  H 2.884355 -1.090572 -3.970278
 22
 49.107981
  C 1.224369 -0.122992 1.344473
  C 2.403732 -0.244674 0.434093
  C 3.331825 1.071412 0.272669
  H 2.693750 1.886137 0.621754
  C 2.492269 -1.310680 -0.509443
  C 3.553672 -1.562019 -1.271021
  C 4.609099 -1.816386 -1.959030
  C 4.935656 -1.289266 -3.334372
  C 3.839434 -0.404196 -3.914579
  H 4.117348 -0.075203 -4.915061
  H 5.365425 -2.475217 -1.547116
  H 1.248939 0.789266 1.930303
  H 1.175090 -0.967801 2.034860
  H 0.299284 -0.141081 0.768742
  H 3.559705 1.203377 -0.781475
  H 4.243299 1.227847 0.857985
  H 1.648821 -1.991729 -0.565997
  H 3.454745 -0.261333 0.906695
  H 5.111787 -2.144250 -3.992469
  H 5.875259 -0.732596 -3.271389
  H 3.681756 0.478569 -3.296849
  H 2.900273 -0.951481 -3.983019
 22
 33.732844
  C 1.332376 -0.139779 1.446583
  C 2.517991 -0.289411 0.539055
  C 3.132395 1.077443 0.058511
  H 2.367012 1.842316 0.193326
  C 2.577156 -1.407916 -0.390472
  C 3.570701 -1.606446 -1.253968
  C 4.555544 -1.883116 -2.029594
  C 4.894487 -1.273467 -3.358700
  C 3.922861 -0.185758 -3.793004
  H 4.218904 0.202931 -4.762815
  H 5.240129 -2.673893 -1.727943
  H 1.382034 0.785175 2.014794
  H 1.256838 -0.975887 2.141580
  H 0.409838 -0.137638 0.861450
  H 3.385961 1.024962 -0.994205
  H 3.990770 1.430041 0.614505
  H 1.760222 -2.125887 -0.362637
  H 3.490584 -0.394004 1.083040
  H 4.937325 -2.073383 -4.096851
  H 5.900751 -0.849550 -3.279887
  H 3.919800 0.637683 -3.088663
  H 2.914397 -0.579011 -3.875240
 22
 28.112678
  C 1.314292 -0.082413 1.403820
  C 2.594765 -0.250247 0.620806
  C 3.335057 1.080550 0.259874
  H 2.654927 1.903354 0.467035
  C 2.544624 -1.213961 -0.485291
  C 3.593482 -1.521778 -1.234560
  C 4.614728 -1.761331 -1.983502
  C 4.871071 -1.274772 -3.375956
  C 3.739727 -0.437016 -3.947286
  H 3.996420 -0.119689 -4.954845
  H 5.406362 -2.395814 -1.591863
  H 1.397223 0.742475 2.104287
  H 1.078869 -0.983350 1.967081
  H 0.477936 0.109732 0.733247
  H 3.596635 1.104986 -0.793199
  H 4.231057 1.246337 0.846669
  H 1.600318 -1.710230 -0.684254
  H 3.391339 -0.628459 1.290104
  H 5.053109 -2.139276 -4.020048
  H 5.804151 -0.705115 -3.344623
  H 3.566552 0.447857 -3.339403
  H 2.815430 -1.006436 -3.999230
 22
 23.938397
  C 1.259494 -0.143229 1.343834
  C 2.654292 -0.253300 0.745592
  C 3.304334 1.125166 0.467357
  H 2.601323 1.907744 0.738024
  C 2.640391 -1.049381 -0.526025
  C 3.687530 -1.346536 -1.240924
  C 4.712013 -1.646930 -1.999037
  C 4.900072 -1.275801 -3.419012
  C 3.712111 -0.588713 -4.064845
  H 3.959647 -0.305555 -5.084023
  H 5.528055 -2.212162 -1.555950
  H 1.270098 0.552407 2.178846
  H 0.919792 -1.104574 1.721739
  H 0.544133 0.214761 0.607287
  H 3.553007 1.256682 -0.581603
  H 4.210012 1.250473 1.050962
  H 1.672628 -1.433158 -0.836512
  H 3.298516 -0.796913 1.444753
  H 5.179277 -2.168646 -3.988306
  H 5.790148 -0.633030 -3.447396
  H 3.431888 0.304891 -3.512043
  H 2.849313 -1.248788 -4.103856
