 14
 0.000000
  H 1.436021 -0.076297 0.038277
  C 2.508372 -0.083872 0.023406
  C 3.219733 -0.595678 -0.981356
  C 4.657406 -0.606440 -1.002483
  C 5.376920 -1.121872 -2.014360
  C 6.814848 -1.131594 -2.033441
  C 7.528781 -1.641676 -3.034826
  H 8.601697 -1.653726 -3.058476
  H 3.006435 0.351559 0.878233
  H 2.709338 -1.029724 -1.833452
  H 5.161945 -0.171820 -0.149253
  H 4.872927 -1.556587 -2.867779
  H 7.321584 -0.697354 -1.180956
  H 7.032975 -2.077485 -3.890375
 14
 6.884196
  H 1.418516 -0.097401 -0.026451
  C 2.489417 -0.059778 0.041610
  C 3.217993 -0.583116 -0.964781
  C 4.645631 -0.591285 -1.000399
  C 5.370161 -1.116663 -2.007741
  C 6.801708 -1.129395 -2.040564
  C 7.520498 -1.647351 -3.037222
  H 8.595852 -1.635704 -3.015209
  H 3.177372 0.249617 0.796268
  H 2.633699 -0.986125 -1.763253
  H 5.156585 -0.159203 -0.152034
  H 4.865359 -1.557665 -2.852896
  H 7.296516 -0.680332 -1.183976
  H 7.059686 -2.098112 -3.900086
 14
 22.020211
  H 1.434363 -0.110360 -0.052911
  C 2.481698 -0.051864 0.055953
  C 3.222821 -0.555533 -0.977571
  C 4.642944 -0.588214 -0.991925
  C 5.348072 -1.123119 -2.006213
  C 6.789874 -1.107008 -2.033257
  C 7.512169 -1.645501 -3.017730
  H 8.584444 -1.622027 -3.007099
  H 3.292054 0.090318 0.756268
  H 2.569129 -0.896532 -1.760881
  H 5.196323 -0.147207 -0.172937
  H 4.865503 -1.579974 -2.851438
  H 7.275001 -0.621099 -1.198048
  H 7.032894 -2.136043 -3.852178
 14
 27.799317
  H 1.438205 -0.133702 -0.065145
  C 2.479658 -0.072935 0.086090
  C 3.237745 -0.469831 -0.992910
  C 4.658657 -0.518482 -0.990809
  C 5.357094 -1.090124 -1.993963
  C 6.790175 -1.091119 -2.056971
  C 7.494512 -1.690117 -3.013318
  H 8.563789 -1.680983 -2.967839
  H 3.275241 -0.206939 0.810031
  H 2.638265 -0.808797 -1.841734
  H 5.159678 -0.048373 -0.166615
  H 4.831830 -1.552662 -2.809835
  H 7.301790 -0.550904 -1.263467
  H 7.020248 -2.183170 -3.851278
 14
 29.807994
  H 1.467402 -0.072741 -0.120908
  C 2.497517 -0.036567 0.106527
  C 3.240282 -0.448911 -0.990314
  C 4.654966 -0.491728 -1.013245
  C 5.359104 -1.081018 -2.000817
  C 6.797862 -1.110366 -2.034349
  C 7.505355 -1.672546 -3.015688
  H 8.578789 -1.629301 -3.042437
  H 3.177855 -0.416078 0.870014
  H 2.611249 -0.775221 -1.815885
  H 5.186037 -0.018964 -0.203058
  H 4.845812 -1.567110 -2.818114
  H 7.298038 -0.598026 -1.221273
  H 7.027824 -2.188709 -3.836253
 14
 38.170499
  H 1.496417 0.140150 -0.193216
  C 2.514110 0.053633 0.115031
  C 3.255700 -0.417637 -0.975349
  C 4.660696 -0.523480 -0.985688
  C 5.374843 -1.094437 -1.993837
  C 6.807531 -1.107418 -2.042305
  C 7.510547 -1.675745 -3.024787
  H 8.587210 -1.694086 -3.023466
  H 2.971323 -0.595624 0.816446
  H 2.688226 -0.808657 -1.806784
  H 5.183227 -0.080875 -0.151238
  H 4.851052 -1.547742 -2.821110
  H 7.324486 -0.632981 -1.216993
  H 7.022656 -2.140109 -3.869413
 14
 64.402848
  H 1.457563 0.208279 -0.021211
  C 2.520305 0.072712 0.128978
  C 3.282919 -0.378993 -0.985212
  C 4.672084 -0.483641 -0.985542
  C 5.382674 -1.089237 -1.982418
  C 6.816509 -1.110142 -2.035829
  C 7.519423 -1.699629 -3.016264
  H 8.595398 -1.703224 -3.031228
  H 2.876428 -0.868761 0.538091
  H 2.679843 -0.798406 -1.769238
  H 5.183887 0.003492 -0.171339
  H 4.854516 -1.574259 -2.798041
  H 7.334904 -0.606021 -1.231344
  H 7.037025 -2.185352 -3.850563
