 21
 0.000000
  H 1.432028 0.047925 0.163622
  C 2.501487 0.055794 0.034108
  C 3.330014 -0.019223 1.285899
  C 2.504639 -0.071118 2.568954
  C 3.398109 -0.140927 3.802995
  C 3.055264 0.128960 -1.166453
  C 2.369901 0.208927 -2.498232
  C 0.846670 0.192522 -2.461754
  H 0.452914 0.252024 -3.471080
  H 4.135430 0.133517 -1.246788
  H 3.992896 0.851109 1.328926
  H 3.975643 -0.903602 1.239223
  H 1.853034 -0.948139 2.549786
  H 1.874109 0.818782 2.634151
  H 4.024583 -1.030088 3.771911
  H 2.797425 -0.177228 4.709430
  H 4.045643 0.731996 3.856399
  H 2.722853 -0.627021 -3.114175
  H 2.707651 1.123100 -3.001301
  H 0.466019 1.038408 -1.894557
  H 0.482925 -0.724630 -2.004804
 21
 -0.305781
  H 1.474508 0.300219 0.165916
  C 2.537855 0.170963 0.030025
  C 3.362372 0.117288 1.285289
  C 2.515737 -0.127845 2.531847
  C 3.369566 -0.184740 3.792440
  C 3.067438 0.070431 -1.176620
  C 2.365674 0.113914 -2.499995
  C 0.849360 0.233594 -2.418589
  H 0.420778 0.241660 -3.418527
  H 4.142213 -0.051241 -1.263334
  H 3.908939 1.058843 1.402083
  H 4.106657 -0.678446 1.184855
  H 1.973340 -1.069506 2.418618
  H 1.778472 0.672466 2.630289
  H 4.099780 -0.988381 3.722800
  H 2.749459 -0.360072 4.668695
  H 3.905226 0.751971 3.933124
  H 2.628556 -0.792572 -3.055224
  H 2.765406 0.958267 -3.071948
  H 0.563642 1.154974 -1.916551
  H 0.428553 -0.606793 -1.871446
 21
 -0.517223
  H 1.518298 0.597813 0.149412
  C 2.557232 0.327042 0.033362
  C 3.369540 0.264852 1.294100
  C 2.525127 -0.156111 2.496473
  C 3.360007 -0.251813 3.767310
  C 3.060463 0.028667 -1.151674
  C 2.356156 0.025236 -2.474907
  C 0.849795 0.237791 -2.398256
  H 0.413344 0.183880 -3.393237
  H 4.116585 -0.207560 -1.226835
  H 3.825049 1.238770 1.495984
  H 4.168846 -0.463026 1.135462
  H 2.065369 -1.125051 2.288635
  H 1.721212 0.568847 2.644858
  H 4.155534 -0.984212 3.646756
  H 2.742341 -0.551970 4.610792
  H 3.813630 0.709765 3.999001
  H 2.562815 -0.931313 -2.965647
  H 2.799906 0.804101 -3.104597
  H 0.619806 1.213733 -1.977678
  H 0.388076 -0.526796 -1.777919
 21
 -0.169783
  H 1.614321 0.913259 0.092874
  C 2.609074 0.498267 0.022721
  C 3.384306 0.423837 1.301961
  C 2.533402 -0.173198 2.426181
  C 3.333983 -0.336615 3.712023
  C 3.065323 -0.003408 -1.112604
  C 2.339045 -0.069733 -2.423780
  C 0.844561 0.213380 -2.342418
  H 0.385024 0.079441 -3.319322
  H 4.099769 -0.322044 -1.172120
  H 3.738463 1.411872 1.605357
  H 4.232893 -0.234688 1.113011
  H 2.152332 -1.145483 2.105901
  H 1.674038 0.475004 2.614237
  H 4.182588 -0.998314 3.551656
  H 2.713343 -0.759060 4.499115
  H 3.711124 0.625968 4.051550
  H 2.495286 -1.069058 -2.842228
  H 2.803676 0.638500 -3.118830
  H 0.661605 1.234990 -2.018570
  H 0.366551 -0.465425 -1.639933
 21
 3.709698
  H 1.763266 1.264465 -0.012928
  C 2.670351 0.679186 0.003656
  C 3.400771 0.592245 1.309013
  C 2.526529 -0.147836 2.333493
  C 3.293989 -0.435739 3.618054
  C 3.096172 0.027431 -1.064266
  C 2.335192 -0.136190 -2.349212
  C 0.835834 0.106861 -2.234837
  H 0.344259 -0.138061 -3.173798
  H 4.137365 -0.259947 -1.136134
  H 3.685193 1.563680 1.709034
  H 4.246440 -0.058796 1.094304
  H 2.178837 -1.084508 1.893477
  H 1.646155 0.455868 2.567874
  H 4.154456 -1.069823 3.415577
  H 2.656278 -0.941258 4.340121
  H 3.650428 0.490344 4.064566
  H 2.506503 -1.158746 -2.700478
  H 2.754957 0.530615 -3.110668
  H 0.627129 1.149004 -2.006051
  H 0.410417 -0.511886 -1.448161
 21
 17.066820
  H 1.829715 1.565418 -0.096765
  C 2.660268 0.883152 -0.001745
  C 3.362087 0.718112 1.315405
  C 2.487184 -0.098132 2.286242
  C 3.288098 -0.532711 3.506633
  C 3.126056 0.142259 -1.009738
  C 2.369796 -0.163557 -2.276235
  C 0.856386 -0.061899 -2.135103
  H 0.367554 -0.410449 -3.042284
  H 4.194290 0.015775 -1.126923
  H 3.690762 1.633725 1.792693
  H 4.081820 -0.033090 0.979562
  H 2.088402 -0.972188 1.768898
  H 1.636623 0.505041 2.617638
  H 4.118868 -1.171010 3.213723
  H 2.657282 -1.082609 4.201531
  H 3.691966 0.334694 4.024441
  H 2.637054 -1.183562 -2.569693
  H 2.706473 0.492967 -3.087386
  H 0.552273 0.966868 -1.961018
  H 0.512946 -0.667310 -1.299443
 21
 36.784703
  H 1.865766 1.836528 -0.168576
  C 2.622966 1.081102 -0.005480
  C 3.277525 0.828692 1.326902
  C 2.452933 -0.085635 2.260396
  C 3.315511 -0.615161 3.393351
  C 3.119714 0.265036 -0.946508
  C 2.413190 -0.189986 -2.203856
  C 0.894197 -0.199655 -2.068447
  H 0.434607 -0.637149 -2.951271
  H 4.193391 0.229723 -1.079252
  H 3.638096 1.697348 1.862705
  H 3.883917 0.008808 0.871838
  H 2.022785 -0.911234 1.693410
  H 1.616806 0.477995 2.688518
  H 4.129745 -1.220375 3.005289
  H 2.722654 -1.228123 4.066218
  H 3.742299 0.205056 3.962531
  H 2.771669 -1.196888 -2.441759
  H 2.692377 0.455330 -3.047378
  H 0.511785 0.809893 -1.947631
  H 0.597438 -0.782018 -1.199834
 21
 64.803174
  H 1.970218 2.070330 -0.275125
  C 2.656858 1.275249 -0.025447
  C 3.182270 0.948748 1.315831
  C 2.406685 -0.067088 2.181683
  C 3.308068 -0.690864 3.236442
  C 3.153296 0.318069 -0.860837
  C 2.454863 -0.235515 -2.087109
  C 0.939827 -0.291191 -1.930004
  H 0.482024 -0.766057 -2.795202
  H 4.221778 0.346305 -1.033486
  H 3.530379 1.773721 1.932698
  H 3.724074 0.026761 0.723841
  H 1.962402 -0.845984 1.559614
  H 1.582135 0.453801 2.687231
  H 4.120384 -1.245143 2.769699
  H 2.740713 -1.374026 3.864456
  H 3.741613 0.078749 3.870987
  H 2.842380 -1.240134 -2.274010
  H 2.705842 0.373475 -2.965288
  H 0.526959 0.708763 -1.829529
  H 0.672890 -0.860426 -1.042020
 21
 80.794415
  H 2.061146 2.185220 -0.300463
  C 2.691486 1.361615 -0.005444
  C 3.102525 1.012756 1.301908
  C 2.380842 -0.065562 2.106713
  C 3.285875 -0.717596 3.146608
  C 3.210472 0.330241 -0.823252
  C 2.477551 -0.258960 -2.015500
  C 0.969298 -0.318492 -1.808838
  H 0.487047 -0.813573 -2.648729
  H 4.277612 0.377340 -1.026999
  H 3.411787 1.818437 1.979109
  H 3.678464 -0.077332 0.483773
  H 1.964637 -0.832997 1.449509
  H 1.540500 0.415362 2.623873
  H 4.118276 -1.229251 2.665532
  H 2.729069 -1.443980 3.735320
  H 3.691504 0.033047 3.822027
  H 2.860062 -1.267006 -2.196774
  H 2.701436 0.334482 -2.908472
  H 0.554897 0.681448 -1.716369
  H 0.732557 -0.869832 -0.901455
 21
 64.249863
  H 2.207681 2.272399 -0.330255
  C 2.749308 1.414679 0.020228
  C 3.035576 1.084309 1.308307
  C 2.350260 -0.037241 2.053090
  C 3.246690 -0.728498 3.074302
  C 3.280119 0.300033 -0.791493
  C 2.494822 -0.283172 -1.957013
  C 0.996157 -0.357483 -1.680794
  H 0.477795 -0.835523 -2.508896
  H 4.346093 0.391826 -1.047055
  H 3.294002 1.869264 2.035339
  H 3.656409 -0.187702 0.251452
  H 1.954520 -0.781057 1.359709
  H 1.505211 0.414589 2.576268
  H 4.083599 -1.215307 2.582204
  H 2.690342 -1.479220 3.624857
  H 3.640100 -0.006813 3.782390
  H 2.872652 -1.287745 -2.177873
  H 2.672542 0.331600 -2.843650
  H 0.581608 0.637019 -1.544833
  H 0.803517 -0.931470 -0.777900
 21
 37.981232
  H 2.322910 2.233640 -0.378845
  C 2.844367 1.380977 0.023194
  C 2.971966 1.094151 1.333442
  C 2.367163 -0.081703 2.058709
  C 3.264856 -0.679591 3.143426
  C 3.306510 0.229505 -0.817536
  C 2.478812 -0.278216 -1.988009
  C 0.985380 -0.303372 -1.680316
  H 0.430939 -0.732050 -2.512544
  H 4.356147 0.373366 -1.127038
  H 3.129105 1.906615 2.053140
  H 3.587079 -0.445397 0.042719
  H 2.075435 -0.870643 1.362183
  H 1.458071 0.308593 2.524734
  H 4.173293 -1.087932 2.705725
  H 2.748810 -1.478121 3.673196
  H 3.547618 0.084034 3.865442
  H 2.807625 -1.288640 -2.246724
  H 2.664410 0.356155 -2.857581
  H 0.612548 0.702100 -1.502516
  H 0.789295 -0.900693 -0.792571
 21
 17.606972
  H 2.625284 2.233067 -0.439532
  C 2.882112 1.286946 0.014901
  C 2.898195 1.081252 1.345947
  C 2.368211 -0.129578 2.071734
  C 3.277842 -0.622035 3.198459
  C 3.319997 0.136404 -0.841234
  C 2.453361 -0.264776 -2.027807
  C 0.970323 -0.281336 -1.675426
  H 0.379556 -0.628797 -2.520308
  H 4.355941 0.317701 -1.166220
  H 2.971169 1.910680 2.052227
  H 3.504253 -0.656402 -0.092204
  H 2.164029 -0.955064 1.387901
  H 1.413102 0.189659 2.498429
  H 4.235289 -0.948418 2.798393
  H 2.821526 -1.459341 3.723100
  H 3.461845 0.174921 3.915795
  H 2.754007 -1.255496 -2.375719
  H 2.624800 0.437201 -2.846223
  H 0.630156 0.713976 -1.401156
  H 0.787659 -0.945071 -0.832434
 21
 6.646995
  H 2.715685 2.080718 -0.444487
  C 2.902730 1.135932 0.046312
  C 2.745292 1.001673 1.354988
  C 2.402261 -0.246115 2.118660
  C 3.363325 -0.516831 3.276006
  C 3.293483 -0.017379 -0.827685
  C 2.436958 -0.242277 -2.072284
  C 0.945920 -0.149561 -1.768032
  H 0.360612 -0.363444 -2.659825
  H 4.336553 0.151122 -1.127956
  H 2.711171 1.861895 2.016847
  H 3.352779 -0.903944 -0.187514
  H 2.358320 -1.122496 1.472851
  H 1.398067 -0.083159 2.522369
  H 4.368576 -0.693560 2.899266
  H 3.047534 -1.390913 3.841465
  H 3.396989 0.335981 3.950937
  H 2.655894 -1.232262 -2.479114
  H 2.701819 0.493625 -2.834794
  H 0.685196 0.845139 -1.415668
  H 0.671881 -0.865169 -0.995742
 21
 0.596759
  H 3.018274 2.024658 -0.419439
  C 2.968491 1.051962 0.054242
  C 2.652923 0.968326 1.336161
  C 2.373704 -0.273870 2.129787
  C 3.364088 -0.437933 3.282531
  C 3.306430 -0.101836 -0.839046
  C 2.423761 -0.188685 -2.086133
  C 0.940807 -0.146267 -1.737360
  H 0.333788 -0.256904 -2.633286
  H 4.350200 0.027561 -1.147724
  H 2.572422 1.859896 1.947177
  H 3.266377 -1.031491 -0.268325
  H 2.394469 -1.165210 1.504304
  H 1.363301 -0.182012 2.540646
  H 4.376530 -0.539623 2.897453
  H 3.126172 -1.322321 3.869490
  H 3.333774 0.429616 3.938479
  H 2.643076 -1.120500 -2.612588
  H 2.664954 0.637218 -2.759264
  H 0.687550 0.797623 -1.260780
  H 0.689957 -0.951230 -1.049724
 21
 -0.886438
  H 3.305590 2.007788 -0.390650
  C 3.096094 1.043177 0.056602
  C 2.661194 1.005481 1.306051
  C 2.299152 -0.205014 2.110167
  C 3.310800 -0.434327 3.233333
  C 3.353273 -0.117503 -0.852809
  C 2.412908 -0.115314 -2.062136
  C 0.954873 -0.273981 -1.647841
  H 0.305570 -0.266500 -2.520713
  H 4.385632 -0.044680 -1.208943
  H 2.571335 1.936206 1.854337
  H 3.254129 -1.056643 -0.308948
  H 2.245404 -1.093915 1.482609
  H 1.309943 -0.047090 2.550169
  H 4.304951 -0.586788 2.818873
  H 3.040094 -1.310608 3.818565
  H 3.345292 0.426929 3.897461
  H 2.691521 -0.931986 -2.732571
  H 2.535566 0.821048 -2.610024
  H 0.658236 0.536908 -0.987064
  H 0.809490 -1.214211 -1.119867
