 29
 0.000000
  C 0.990066 0.135847 0.389650
  C 2.466360 0.140617 0.400737
  C 3.238989 0.612006 1.573588
  C 2.449219 1.097986 2.783697
  H 3.119483 1.414724 3.571698
  C 3.087598 -0.323300 -0.754497
  C 4.463155 -0.412471 -0.977308
  C 5.125642 -0.867345 -2.110706
  C 4.615834 -1.388158 -3.408696
  C 3.123182 -1.502063 -3.693942
  C 2.894284 -2.064053 -5.094541
  O 6.447944 -0.868398 -2.113401
  H 0.547613 0.504560 1.307703
  H 0.623974 -0.877251 0.219272
  H 0.623499 0.749356 -0.434157
  H 3.895808 1.425176 1.244686
  H 3.896228 -0.202364 1.898585
  H 1.814003 0.302589 3.169851
  H 1.813626 1.939224 2.512357
  H 2.427639 -0.640492 -1.543774
  H 5.092090 -0.083510 -0.158216
  H 5.069044 -2.377679 -3.537614
  H 5.069680 -0.762696 -4.185886
  H 2.650512 -0.520709 -3.639240
  H 2.649821 -2.172995 -2.976129
  H 3.331846 -1.417629 -5.851735
  H 1.828913 -2.144132 -5.295209
  H 3.331179 -3.054900 -5.194669
  H 6.836477 -0.535599 -1.282699
 29
 -0.154729
  C 0.965915 0.135002 0.425892
  C 2.439069 0.102649 0.406907
  C 3.244522 0.610601 1.544189
  C 2.482471 1.150555 2.747780
  H 3.192561 1.482723 3.502599
  C 3.039035 -0.417280 -0.736735
  C 4.414679 -0.517489 -0.938989
  C 5.105791 -0.893095 -2.087072
  C 4.612851 -1.368381 -3.408223
  C 3.125075 -1.510143 -3.698789
  C 2.923906 -2.024420 -5.122890
  O 6.424913 -0.850453 -2.079268
  H 0.557866 0.551134 1.337970
  H 0.572361 -0.872954 0.286883
  H 0.597681 0.713087 -0.422896
  H 3.905038 1.401089 1.170141
  H 3.902790 -0.195999 1.884336
  H 1.854444 0.384820 3.198195
  H 1.863468 2.003496 2.478393
  H 2.371781 -0.742768 -1.516966
  H 5.046212 -0.217720 -0.111427
  H 5.099813 -2.335915 -3.578295
  H 5.058372 -0.701931 -4.155724
  H 2.628500 -0.543474 -3.610165
  H 2.670537 -2.222084 -3.009212
  H 3.352111 -1.337241 -5.849201
  H 1.864193 -2.128306 -5.341451
  H 3.392322 -2.996939 -5.255843
  H 6.820976 -0.552326 -1.241075
 29
 0.317528
  C 0.961600 0.122990 0.439738
  C 2.435605 0.055208 0.420283
  C 3.254837 0.614572 1.521230
  C 2.506308 1.220390 2.698222
  H 3.224322 1.577617 3.435398
  C 3.022119 -0.534611 -0.696120
  C 4.398178 -0.639741 -0.899565
  C 5.101814 -0.938618 -2.062617
  C 4.618002 -1.353143 -3.404819
  C 3.132385 -1.516933 -3.694119
  C 2.932219 -1.953963 -5.144668
  O 6.418735 -0.862519 -2.051174
  H 0.565873 0.601546 1.326978
  H 0.542913 -0.882073 0.358984
  H 0.602794 0.658601 -0.442616
  H 3.915442 1.380738 1.103705
  H 3.909047 -0.175139 1.897079
  H 1.870769 0.485638 3.186289
  H 1.899932 2.069597 2.390779
  H 2.349133 -0.888990 -1.457388
  H 5.024280 -0.364725 -0.058107
  H 5.127813 -2.293471 -3.627701
  H 5.041238 -0.638843 -4.115263
  H 2.613528 -0.569299 -3.545403
  H 2.702938 -2.278175 -3.043104
  H 3.336798 -1.216216 -5.832651
  H 1.874595 -2.072402 -5.361728
  H 3.423199 -2.903018 -5.336280
  H 6.808741 -0.602646 -1.196062
 29
 1.125101
  C 0.961329 0.027679 0.468481
  C 2.434572 -0.010839 0.428466
  C 3.258371 0.676004 1.449414
  C 2.518741 1.339041 2.604408
  H 3.242291 1.806238 3.268058
  C 3.013639 -0.690016 -0.636636
  C 4.389650 -0.764907 -0.854568
  C 5.109574 -1.051327 -2.009732
  C 4.635477 -1.381388 -3.381435
  C 3.142918 -1.477923 -3.684526
  C 2.929310 -1.781976 -5.162840
  O 6.425381 -1.007031 -1.971848
  H 0.570008 0.588225 1.306004
  H 0.570853 -0.989976 0.508330
  H 0.572755 0.454556 -0.455974
  H 3.846037 1.450096 0.940619
  H 3.981591 -0.035265 1.856958
  H 1.960569 0.612819 3.189421
  H 1.844902 2.114988 2.256162
  H 2.335753 -1.093540 -1.369775
  H 5.016149 -0.516682 -0.005010
  H 5.121365 -2.325823 -3.654856
  H 5.084700 -0.633691 -4.045775
  H 2.652703 -0.537336 -3.441463
  H 2.694213 -2.283190 -3.103372
  H 3.355510 -1.002754 -5.787645
  H 1.869945 -1.851921 -5.386306
  H 3.391004 -2.725326 -5.434319
  H 6.806964 -0.812257 -1.091434
 29
 2.696167
  C 0.967804 -0.005501 0.444704
  C 2.437749 -0.080134 0.432631
  C 3.261774 0.666805 1.410828
  C 2.530562 1.423135 2.516634
  H 3.261125 1.936368 3.142840
  C 3.016794 -0.835597 -0.578882
  C 4.391822 -0.868248 -0.816338
  C 5.123588 -1.119892 -1.968311
  C 4.650016 -1.384942 -3.360667
  C 3.151382 -1.453825 -3.652588
  C 2.919945 -1.660878 -5.147692
  O 6.437875 -1.092414 -1.915578
  H 0.583055 0.604845 1.254446
  H 0.547258 -1.009864 0.519314
  H 0.610927 0.404810 -0.500573
  H 3.856099 1.398249 0.847214
  H 3.978544 -0.025525 1.868112
  H 1.962874 0.751789 3.151799
  H 1.859539 2.177304 2.111820
  H 2.337951 -1.295691 -1.273067
  H 5.021204 -0.628593 0.036835
  H 5.124520 -2.319636 -3.683004
  H 5.096015 -0.604074 -3.985535
  H 2.669485 -0.530648 -3.338210
  H 2.712148 -2.298052 -3.120063
  H 3.337696 -0.833363 -5.727783
  H 1.856602 -1.717419 -5.362239
  H 3.378458 -2.584916 -5.486606
  H 6.813615 -0.923049 -1.032642
 29
 4.247253
  C 1.006262 -0.010997 0.322817
  C 2.474919 -0.163857 0.418922
  C 3.265236 0.657327 1.370049
  C 2.502544 1.510008 2.375520
  H 3.210741 2.055655 2.985430
  C 3.078652 -1.017400 -0.486244
  C 4.458120 -1.025910 -0.738108
  C 5.156432 -1.230026 -1.916414
  C 4.642047 -1.399428 -3.300379
  C 3.140756 -1.438225 -3.556325
  C 2.867974 -1.486362 -5.053268
  O 6.475943 -1.169964 -1.911951
  H 0.603808 0.677171 1.056925
  H 0.528525 -0.986247 0.438104
  H 0.736405 0.345576 -0.672464
  H 3.896856 1.328752 0.777783
  H 3.952509 -0.000185 1.907910
  H 1.900521 0.896890 3.040172
  H 1.861712 2.237780 1.886686
  H 2.411796 -1.556855 -1.139580
  H 5.094899 -0.821466 0.119674
  H 5.111132 -2.298057 -3.708683
  H 5.069261 -0.570095 -3.873961
  H 2.665802 -0.554094 -3.138073
  H 2.709321 -2.331146 -3.100563
  H 3.258057 -0.599452 -5.546427
  H 1.801919 -1.533460 -5.242390
  H 3.331416 -2.357872 -5.506296
  H 6.881129 -1.065012 -1.031647
 29
 7.667542
  C 1.043154 0.095160 0.205811
  C 2.478317 -0.188322 0.394421
  C 3.290367 0.595555 1.358890
  C 2.543677 1.506794 2.324572
  H 3.261965 2.003618 2.972811
  C 3.050957 -1.128877 -0.440878
  C 4.428511 -1.118077 -0.702253
  C 5.148854 -1.221073 -1.876055
  C 4.642333 -1.332060 -3.272498
  C 3.151190 -1.456880 -3.516821
  C 2.862806 -1.492215 -5.013000
  O 6.464913 -1.101844 -1.853359
  H 0.672631 0.851250 0.888562
  H 0.459761 -0.822477 0.319914
  H 0.867413 0.440529 -0.811514
  H 4.001527 1.208440 0.795449
  H 3.888143 -0.114516 1.938652
  H 1.854029 0.944937 2.950637
  H 1.994743 2.287450 1.799613
  H 2.367795 -1.668012 -1.076409
  H 5.042993 -0.971935 0.184189
  H 5.158389 -2.180690 -3.729952
  H 5.020336 -0.456084 -3.811380
  H 2.627475 -0.608569 -3.082253
  H 2.767315 -2.375120 -3.071624
  H 3.185855 -0.567490 -5.487341
  H 1.793430 -1.599809 -5.191854
  H 3.379163 -2.321588 -5.494494
  H 6.858427 -1.058134 -0.962856
 29
 13.672240
  C 1.093035 0.270561 0.127208
  C 2.487474 -0.145292 0.360571
  C 3.316316 0.588199 1.357215
  C 2.579415 1.441204 2.379752
  H 3.305497 1.860900 3.070072
  C 2.971854 -1.168000 -0.443350
  C 4.349933 -1.074218 -0.714602
  C 5.111042 -1.132212 -1.867726
  C 4.645682 -1.279874 -3.274149
  C 3.171065 -1.535249 -3.533338
  C 2.899393 -1.599233 -5.031723
  O 6.427885 -1.072694 -1.791134
  H 0.706169 0.916284 0.907179
  H 0.451052 -0.608094 0.037706
  H 1.018621 0.807799 -0.820203
  H 4.066339 1.207086 0.860416
  H 3.865225 -0.178123 1.919237
  H 1.882408 0.841281 2.962305
  H 2.050262 2.269263 1.924260
  H 2.238451 -1.604158 -1.098921
  H 4.959334 -0.988611 0.183541
  H 5.238867 -2.081595 -3.715427
  H 4.956083 -0.378532 -3.815692
  H 2.580412 -0.721408 -3.110553
  H 2.859401 -2.471915 -3.074747
  H 3.200268 -0.675460 -5.523691
  H 1.839190 -1.750632 -5.217558
  H 3.440668 -2.427280 -5.489512
  H 6.789298 -1.046438 -0.884613
 29
 19.459779
  C 1.092506 0.091803 0.127982
  C 2.499939 -0.276309 0.359667
  C 3.302648 0.514498 1.321485
  C 2.580074 1.574672 2.162721
  H 3.324304 2.086200 2.770365
  C 2.990511 -1.340328 -0.384767
  C 4.353724 -1.167259 -0.687960
  C 5.139259 -1.224443 -1.818481
  C 4.675205 -1.316194 -3.228473
  C 3.175564 -1.331655 -3.480100
  C 2.886679 -1.381374 -4.974077
  O 6.453523 -1.113395 -1.731977
  H 0.738112 0.834437 0.834483
  H 0.457535 -0.793748 0.195942
  H 0.975174 0.482737 -0.873629
  H 4.102873 1.033051 0.785092
  H 3.827292 -0.175865 1.981451
  H 1.848319 1.128812 2.848711
  H 2.106918 2.335916 1.544451
  H 2.249453 -1.822645 -0.991675
  H 4.950715 -1.123480 0.224661
  H 5.128360 -2.215977 -3.653544
  H 5.134052 -0.484519 -3.781593
  H 2.713554 -0.441708 -3.063641
  H 2.728746 -2.211289 -3.020336
  H 3.299523 -0.510925 -5.484172
  H 1.816087 -1.410722 -5.151892
  H 3.316512 -2.269179 -5.417165
  H 6.800597 -0.997240 -0.828634
 29
 34.986068
  C 1.184160 0.235931 -0.082434
  C 2.544545 -0.286801 0.259700
  C 3.332829 0.474905 1.259687
  C 2.634811 1.590314 2.026326
  H 3.356370 2.015089 2.719151
  C 2.847322 -1.488834 -0.370557
  C 4.226808 -1.241199 -0.585837
  C 5.062696 -1.235277 -1.693578
  C 4.660409 -1.242190 -3.124557
  C 3.176581 -1.307351 -3.447925
  C 2.955139 -1.279496 -4.957274
  O 6.370971 -1.200354 -1.540418
  H 0.858319 1.026418 0.582171
  H 0.462619 -0.581941 -0.036358
  H 1.177634 0.611212 -1.101855
  H 4.217483 0.910892 0.793300
  H 3.716389 -0.255047 1.984058
  H 1.807082 1.218534 2.622022
  H 2.305252 2.392209 1.377042
  H 2.005403 -1.886131 -0.909486
  H 4.800291 -1.314024 0.336870
  H 5.184998 -2.075414 -3.603587
  H 5.096751 -0.352227 -3.594741
  H 2.663855 -0.447458 -3.012599
  H 2.731340 -2.216293 -3.045096
  H 3.361501 -0.370485 -5.392873
  H 1.892365 -1.315325 -5.184651
  H 3.429369 -2.132922 -5.436368
  H 6.686188 -1.215576 -0.613379
 29
 49.643376
  C 1.326420 0.202780 -0.226429
  C 2.659140 -0.340111 0.226191
  C 3.383923 0.456911 1.276967
  C 2.625978 1.592885 1.960243
  H 3.288967 2.032580 2.701395
  C 2.899556 -1.606191 -0.329859
  C 4.248513 -1.232520 -0.572673
  C 5.041405 -1.125696 -1.704455
  C 4.606980 -1.125873 -3.130524
  C 3.125338 -1.314600 -3.418912
  C 2.863778 -1.254076 -4.921347
  O 6.353947 -0.979251 -1.578426
  H 0.993252 1.017738 0.404002
  H 0.572865 -0.584938 -0.196379
  H 1.383448 0.577289 -1.246323
  H 4.300269 0.888682 0.875909
  H 3.699418 -0.259296 2.044799
  H 1.745499 1.230805 2.491735
  H 2.357959 2.382672 1.267508
  H 1.993984 -1.960344 -0.788860
  H 4.841448 -1.325589 0.332590
  H 5.190769 -1.899443 -3.640762
  H 4.938674 -0.176612 -3.569023
  H 2.559406 -0.511608 -2.947105
  H 2.772089 -2.272055 -3.034299
  H 3.184816 -0.298218 -5.334208
  H 1.803172 -1.369023 -5.127348
  H 3.396731 -2.045555 -5.440340
  H 6.691248 -0.983552 -0.664978
