 26
 0.000000
  H 1.426973 0.158713 0.448857
  C 2.505700 0.145445 0.414379
  C 3.255341 0.617218 1.586026
  C 2.392625 1.085193 2.750915
  H 3.017036 1.416123 3.572892
  C 3.078678 -0.323286 -0.752159
  C 4.454729 -0.412811 -0.976679
  C 5.129687 -0.867447 -2.110659
  C 4.615766 -1.386468 -3.404794
  C 3.123449 -1.499848 -3.688303
  C 2.906094 -2.062446 -5.091071
  O 6.443863 -0.864491 -2.104206
  H 3.916285 1.437235 1.280658
  H 3.917360 -0.185030 1.933226
  H 1.754400 0.279020 3.106250
  H 1.753469 1.912288 2.449427
  H 2.401613 -0.635411 -1.528005
  H 5.093490 -0.086290 -0.164169
  H 5.075297 -2.373625 -3.535777
  H 5.075829 -0.763788 -4.181634
  H 2.650314 -0.518980 -3.635023
  H 2.649972 -2.171889 -2.972100
  H 3.348529 -1.414598 -5.844024
  H 1.843454 -2.147270 -5.303073
  H 3.348351 -3.051167 -5.187633
  H 6.844254 -0.533329 -1.277263
 26
 0.100237
  H 1.543420 0.717958 0.277786
  C 2.584902 0.428244 0.306597
  C 3.251304 0.512340 1.612348
  C 2.346758 1.016632 2.727891
  H 2.888559 1.053353 3.668990
  C 3.154509 0.007961 -0.875318
  C 4.491555 -0.378249 -1.001857
  C 5.152359 -0.805932 -2.155134
  C 4.594267 -1.198732 -3.475341
  C 3.138548 -1.644216 -3.599648
  C 2.901886 -2.250366 -4.979873
  O 6.461860 -0.865700 -2.155236
  H 4.130812 1.162382 1.533871
  H 3.644857 -0.474734 1.883159
  H 1.487844 0.362561 2.857081
  H 1.981413 2.016968 2.508507
  H 2.528850 0.015105 -1.750865
  H 5.091556 -0.309214 -0.102544
  H 5.237842 -2.009933 -3.832303
  H 4.777044 -0.369145 -4.168419
  H 2.456651 -0.804883 -3.481932
  H 2.911211 -2.392244 -2.839650
  H 3.107055 -1.524708 -5.763401
  H 1.867697 -2.570387 -5.078737
  H 3.538709 -3.117166 -5.141170
  H 6.895226 -0.653676 -1.305831
 26
 -1.539320
  H 1.686202 1.069242 0.113982
  C 2.657240 0.602700 0.212839
  C 3.200822 0.506794 1.574858
  C 2.288156 1.101820 2.638877
  H 2.734257 0.997478 3.623621
  C 3.261836 0.148310 -0.938535
  C 4.517055 -0.462881 -0.979995
  C 5.178625 -0.875144 -2.140199
  C 4.539646 -1.052978 -3.469828
  C 3.310634 -1.978662 -3.482355
  C 2.831523 -2.194475 -4.913025
  O 6.471770 -1.040030 -2.149234
  H 4.179320 0.998605 1.615655
  H 3.397820 -0.546925 1.811883
  H 1.323967 0.599416 2.649399
  H 2.117594 2.159552 2.456073
  H 2.748023 0.327203 -1.871891
  H 5.041537 -0.584703 -0.041581
  H 5.295696 -1.470693 -4.139234
  H 4.262332 -0.071800 -3.867423
  H 2.494985 -1.565035 -2.894176
  H 3.584195 -2.940250 -3.048077
  H 2.538353 -1.252969 -5.370510
  H 1.972093 -2.859820 -4.924890
  H 3.612111 -2.642322 -5.523099
  H 6.910406 -1.039479 -1.274120
 26
 6.827602
  H 1.609729 0.870081 0.156639
  C 2.616535 0.493920 0.251589
  C 3.226260 0.598497 1.581743
  C 2.316956 1.245627 2.614003
  H 2.799893 1.261656 3.588499
  C 3.204569 -0.030409 -0.875656
  C 4.501010 -0.568123 -0.906351
  C 5.143256 -1.015643 -2.065584
  C 4.521818 -1.068374 -3.414000
  C 3.350538 -2.054513 -3.547971
  C 2.838142 -2.071733 -4.979479
  O 6.457289 -0.953131 -2.107672
  H 4.164598 1.159009 1.517135
  H 3.502523 -0.405158 1.925233
  H 1.384583 0.698857 2.707169
  H 2.083931 2.271896 2.336317
  H 2.657515 0.046022 -1.802437
  H 4.951926 -0.730095 0.061016
  H 5.299093 -1.349270 -4.121981
  H 4.186176 -0.064609 -3.683928
  H 2.534695 -1.791675 -2.885608
  H 3.692638 -3.054230 -3.275316
  H 2.454704 -1.095935 -5.266328
  H 2.036332 -2.794633 -5.081467
  H 3.627558 -2.345090 -5.671439
  H 6.942024 -1.346526 -1.357590
 26
 31.961512
  H 1.600780 0.883072 0.288499
  C 2.617444 0.510268 0.339040
  C 3.256855 0.572454 1.661934
  C 2.380885 1.243609 2.711477
  H 2.894078 1.274138 3.667005
  C 3.163000 0.034632 -0.818995
  C 4.465320 -0.531114 -0.898039
  C 4.998410 -1.111390 -2.033495
  C 4.515966 -1.194005 -3.426174
  C 3.276729 -2.072496 -3.642354
  C 2.919492 -2.151169 -5.126256
  O 6.311503 -0.671260 -2.053616
  H 4.202844 1.115730 1.584659
  H 3.495902 -0.442940 2.000575
  H 1.449873 0.706097 2.844551
  H 2.149361 2.267096 2.424668
  H 2.611235 0.133807 -1.740734
  H 4.764320 -0.717707 0.119295
  H 5.338208 -1.525353 -4.052700
  H 4.269566 -0.172201 -3.731847
  H 2.427283 -1.673635 -3.086762
  H 3.478559 -3.081948 -3.266182
  H 2.696917 -1.160416 -5.528681
  H 2.036273 -2.776801 -5.270303
  H 3.739569 -2.582839 -5.703396
  H 6.941940 -1.119393 -1.468761
 26
 80.164575
  H 1.563507 0.866330 0.555786
  C 2.607920 0.573030 0.502609
  C 3.345085 0.647094 1.796863
  C 2.479875 1.219497 2.922258
  H 3.032985 1.224966 3.859647
  C 3.060941 0.106364 -0.684529
  C 4.485276 -0.395183 -0.885533
  C 4.655492 -1.064479 -2.058727
  C 4.459032 -1.306561 -3.484516
  C 3.171408 -2.051793 -3.859696
  C 3.109516 -2.284656 -5.366364
  O 6.023891 -0.452260 -2.068454
  H 4.237649 1.269927 1.688668
  H 3.662336 -0.363513 2.091459
  H 1.583316 0.617759 3.067903
  H 2.177702 2.242932 2.698071
  H 2.452014 0.108721 -1.573917
  H 4.664283 -0.450059 0.170507
  H 5.318421 -1.893570 -3.819740
  H 4.506651 -0.344157 -4.000680
  H 2.306219 -1.467254 -3.559518
  H 3.136511 -3.010545 -3.339053
  H 3.136763 -1.342830 -5.906290
  H 2.189915 -2.799795 -5.631923
  H 3.944282 -2.897209 -5.701742
  H 6.694759 -0.997328 -1.622065
 26
 117.495748
  H 1.527478 0.868864 0.604091
  C 2.565663 0.565905 0.482360
  C 3.356428 0.584619 1.759678
  C 2.519780 1.070233 2.940236
  H 3.114120 1.070491 3.851045
  C 2.957979 0.239525 -0.716940
  C 4.668867 -0.366572 -0.972652
  C 4.628379 -0.959599 -2.165279
  C 4.503893 -1.311902 -3.555467
  C 3.138744 -1.938570 -3.886190
  C 3.101421 -2.378864 -5.344412
  O 5.964734 -0.240180 -1.795332
  H 4.219244 1.248149 1.645898
  H 3.714656 -0.424100 1.982279
  H 1.659733 0.423721 3.097997
  H 2.163260 2.084591 2.771548
  H 2.433883 0.247195 -1.646875
  H 4.632400 -0.347749 0.094950
  H 5.285609 -2.034299 -3.815619
  H 4.651816 -0.417787 -4.167924
  H 2.348421 -1.208112 -3.713129
  H 2.963017 -2.796816 -3.238427
  H 3.260822 -1.533500 -6.010400
  H 2.133397 -2.813384 -5.580138
  H 3.864575 -3.126742 -5.546904
  H 6.643713 -0.754240 -1.293880
 26
 131.105094
  H 1.293293 0.652886 0.757926
  C 2.345601 0.458287 0.517402
  C 3.252167 0.602044 1.713312
  C 2.486446 1.026120 2.961922
  H 3.163145 1.119921 3.808372
  C 2.655333 0.141143 -0.698787
  C 4.963117 -0.334057 -1.125965
  C 4.814263 -0.941337 -2.251767
  C 4.621462 -1.346002 -3.600986
  C 3.173117 -1.811779 -3.856976
  C 3.043848 -2.332415 -5.282151
  O 6.269517 -0.245985 -1.817128
  H 4.016882 1.353228 1.499888
  H 3.741454 -0.354446 1.916029
  H 1.723867 0.293200 3.217368
  H 2.002511 1.989173 2.811535
  H 2.125114 0.025239 -1.613938
  H 4.851042 -0.218378 -0.075916
  H 5.299123 -2.177205 -3.823404
  H 4.867411 -0.516474 -4.271959
  H 2.491438 -0.973860 -3.718291
  H 2.907679 -2.598800 -3.151990
  H 3.290369 -1.558557 -6.004691
  H 2.021292 -2.650462 -5.467822
  H 3.697755 -3.184250 -5.449983
  H 6.930304 -0.671852 -1.222641
 26
 118.704024
  H 1.543865 0.456711 0.267794
  C 2.622937 0.310927 0.156888
  C 3.349211 0.492749 1.454495
  C 2.398086 0.849489 2.592765
  H 2.949029 0.969444 3.521754
  C 3.010871 0.027826 -1.033187
  C 5.322547 -0.216800 -1.050657
  C 4.874118 -0.843342 -2.099218
  C 4.423074 -1.302692 -3.369088
  C 2.922302 -1.637901 -3.609451
  C 2.751652 -2.234570 -5.003313
  O 6.709276 -0.082215 -1.400327
  H 4.085798 1.293124 1.345016
  H 3.868675 -0.435624 1.711325
  H 1.654678 0.069248 2.739124
  H 1.882455 1.785701 2.386778
  H 2.585836 -0.109296 -1.996723
  H 5.150625 -0.167652 0.001878
  H 4.970074 -2.236970 -3.550593
  H 4.713180 -0.564186 -4.127824
  H 2.322185 -0.734475 -3.553517
  H 2.580288 -2.351420 -2.860487
  H 3.076728 -1.537064 -5.771647
  H 1.704084 -2.463988 -5.178913
  H 3.318670 -3.155242 -5.113430
  H 7.269662 -0.444149 -0.699540
 26
 100.989279
  H 1.665880 0.125895 0.221525
  C 2.753820 0.098621 0.117886
  C 3.445814 0.499779 1.383115
  C 2.455613 0.856935 2.488991
  H 2.998008 1.131061 3.391654
  C 3.144393 -0.273353 -1.060515
  C 5.397181 -0.236951 -0.981695
  C 4.817251 -0.881746 -1.960882
  C 4.307213 -1.373573 -3.222830
  C 2.827178 -1.485548 -3.645733
  C 2.729389 -2.134733 -5.018947
  O 6.768480 -0.103200 -1.228131
  H 4.085130 1.364480 1.189857
  H 4.057564 -0.338025 1.731100
  H 1.818809 0.011890 2.735525
  H 1.844522 1.710113 2.208334
  H 2.619326 -0.514324 -1.946884
  H 5.154047 -0.054475 0.043574
  H 4.723838 -2.384830 -3.331912
  H 4.783476 -0.750187 -3.996282
  H 2.372102 -0.493906 -3.686731
  H 2.301166 -2.109693 -2.919227
  H 3.239841 -1.549305 -5.777425
  H 1.683502 -2.228771 -5.302817
  H 3.146906 -3.138783 -5.005697
  H 7.286170 -0.188342 -0.413001
 26
 55.458193
  H 1.720926 -0.123394 0.316544
  C 2.799011 -0.089046 0.173413
  C 3.490248 0.547601 1.326372
  C 2.504833 0.991074 2.405061
  H 3.041364 1.439135 3.239173
  C 3.188247 -0.629776 -0.996136
  C 5.373864 -0.342079 -0.953352
  C 4.558993 -1.095875 -1.719013
  C 4.163421 -1.456884 -3.104644
  C 2.742637 -1.450728 -3.668809
  C 2.791009 -1.933707 -5.116024
  O 6.646375 -0.127588 -1.281957
  H 4.054223 1.422367 0.989134
  H 4.185400 -0.173755 1.774059
  H 1.940746 0.145020 2.790216
  H 1.810027 1.733055 2.018740
  H 2.480981 -1.011571 -1.698132
  H 5.156049 -0.056510 0.055163
  H 4.569176 -2.461187 -3.300328
  H 4.753521 -0.787399 -3.750612
  H 2.318440 -0.445808 -3.639047
  H 2.117065 -2.152308 -3.109511
  H 3.400615 -1.277802 -5.731719
  H 1.786477 -1.945765 -5.531923
  H 3.188565 -2.944428 -5.181440
  H 7.260706 -0.035909 -0.531559
 26
 12.908497
  H 1.603071 -0.355437 0.607191
  C 2.649834 -0.266258 0.341339
  C 3.429234 0.520851 1.318810
  C 2.564369 1.033305 2.468692
  H 3.169809 1.604185 3.169871
  C 2.975534 -0.868925 -0.841323
  C 5.300038 -0.375223 -1.052145
  C 4.216758 -1.078570 -1.547876
  C 4.142012 -1.499658 -2.980907
  C 2.825675 -1.345902 -3.737613
  C 3.009789 -1.797691 -5.179259
  O 6.409826 -0.145083 -1.681043
  H 3.894968 1.376209 0.821276
  H 4.227134 -0.100818 1.740893
  H 2.108931 0.207493 3.012240
  H 1.772728 1.684831 2.101099
  H 2.156678 -1.354354 -1.343597
  H 5.242176 -0.019426 -0.031544
  H 4.463030 -2.544463 -3.069622
  H 4.919025 -0.932108 -3.510893
  H 2.508059 -0.307208 -3.720183
  H 2.052282 -1.966768 -3.297145
  H 3.762292 -1.198487 -5.684546
  H 2.075900 -1.692312 -5.725430
  H 3.308598 -2.840183 -5.226221
  H 7.201866 0.014500 -1.129543
 26
 3.948807
  H 1.560825 -0.458401 0.727550
  C 2.577222 -0.288939 0.397126
  C 3.371213 0.560162 1.301365
  C 2.568085 1.057500 2.498072
  H 3.190516 1.671249 3.142821
  C 2.907037 -0.882482 -0.791620
  C 5.290567 -0.304052 -1.100180
  C 4.107442 -0.896781 -1.543883
  C 4.117976 -1.539863 -2.892512
  C 2.912852 -1.234680 -3.790185
  C 3.078841 -1.908776 -5.147151
  O 6.348072 -0.263508 -1.853185
  H 3.765371 1.421962 0.752525
  H 4.232343 -0.006627 1.672119
  H 2.190067 0.225004 3.086151
  H 1.722479 1.658510 2.174624
  H 2.100914 -1.427800 -1.260770
  H 5.339312 0.122099 -0.107355
  H 4.174997 -2.626135 -2.759778
  H 5.028764 -1.243192 -3.416714
  H 2.837699 -0.154945 -3.930805
  H 1.982472 -1.582767 -3.342188
  H 3.985158 -1.569726 -5.643151
  H 2.234083 -1.674057 -5.790412
  H 3.130710 -2.990288 -5.040160
  H 7.149750 0.098786 -1.427394
 26
 3.722518
  H 1.484442 -0.113409 0.575453
  C 2.535403 -0.085253 0.315099
  C 3.393026 0.531364 1.343375
  C 2.601595 1.022088 2.551688
  H 3.268654 1.464074 3.287022
  C 2.842153 -0.616462 -0.909328
  C 5.301311 -0.375302 -1.050352
  C 4.077019 -0.768926 -1.594627
  C 4.129045 -1.358985 -2.965473
  C 2.833709 -1.410124 -3.768356
  C 3.091099 -1.984177 -5.158182
  O 6.400707 -0.495405 -1.733602
  H 3.940369 1.375911 0.911915
  H 4.137156 -0.196523 1.684806
  H 2.069837 0.201933 3.027539
  H 1.875197 1.776568 2.259350
  H 1.989332 -0.980128 -1.463931
  H 5.343890 0.025897 -0.048122
  H 4.524424 -2.378634 -2.879206
  H 4.882576 -0.809486 -3.538389
  H 2.423680 -0.403248 -3.869540
  H 2.089645 -2.034927 -3.272440
  H 3.810099 -1.377347 -5.703788
  H 2.168819 -2.011366 -5.733409
  H 3.477549 -2.998716 -5.094147
  H 7.214029 -0.237164 -1.258444
 26
 3.586188
  H 1.478423 0.273767 0.424526
  C 2.534412 0.140024 0.226440
  C 3.407557 0.493341 1.362547
  C 2.621686 0.961842 2.583867
  H 3.299356 1.212275 3.396842
  C 2.831440 -0.329494 -1.024268
  C 5.306173 -0.407330 -1.043791
  C 4.066729 -0.615148 -1.657333
  C 4.122875 -1.159353 -3.044371
  C 2.812927 -1.528920 -3.726926
  C 3.080039 -2.162927 -5.089244
  O 6.410027 -0.664171 -1.677581
  H 4.095833 1.289982 1.061717
  H 4.014168 -0.373533 1.644631
  H 1.947278 0.185355 2.933961
  H 2.034925 1.847980 2.351536
  H 1.962683 -0.500363 -1.645119
  H 5.344371 -0.036736 -0.029833
  H 4.778002 -2.039944 -3.026949
  H 4.656799 -0.429389 -3.666935
  H 2.195657 -0.639566 -3.872242
  H 2.252392 -2.239110 -3.115712
  H 3.615369 -1.475011 -5.740674
  H 2.142314 -2.425725 -5.576326
  H 3.671237 -3.069984 -4.987632
  H 7.222093 -0.545609 -1.146222
