 22
 0.000000
  C 0.995569 0.174195 0.485335
  C 2.453517 0.129886 0.374310
  H 3.054709 0.464914 1.207756
  C 3.039702 -0.335405 -0.784281
  C 4.423470 -0.421581 -0.999794
  C 5.077027 -0.871934 -2.122176
  C 4.608242 -1.387537 -3.407305
  C 3.129487 -1.519001 -3.736222
  C 2.941295 -2.083295 -5.142753
  H 6.159458 -0.850702 -2.069243
  H 0.658306 0.559079 1.443427
  H 0.576227 -0.823475 0.333625
  H 0.575719 0.789357 -0.314384
  H 2.372291 -0.651587 -1.570836
  H 5.064639 -0.096557 -0.190590
  H 5.088999 -2.368935 -3.535316
  H 5.089760 -0.767332 -4.178136
  H 2.645692 -0.541917 -3.691019
  H 2.645125 -2.193601 -3.028302
  H 3.391011 -1.433149 -5.889594
  H 1.883155 -2.175594 -5.373709
  H 3.390542 -3.069570 -5.232989
 22
 -0.132729
  C 0.947613 0.207214 0.448026
  C 2.402102 0.095937 0.359443
  H 3.000290 0.306879 1.235038
  C 2.996193 -0.291248 -0.822849
  C 4.383841 -0.365882 -1.013936
  C 5.067543 -0.763444 -2.140022
  C 4.626712 -1.324893 -3.415417
  C 3.155643 -1.541230 -3.732862
  C 2.991448 -2.181978 -5.108975
  H 6.146251 -0.673357 -2.082846
  H 0.613908 0.574502 1.413598
  H 0.486930 -0.767144 0.262589
  H 0.566269 0.855837 -0.343579
  H 2.340892 -0.526160 -1.646957
  H 4.997654 -0.055009 -0.180725
  H 5.157553 -2.283542 -3.521517
  H 5.079376 -0.706212 -4.204304
  H 2.628209 -0.585919 -3.734350
  H 2.702752 -2.198253 -2.988440
  H 3.412357 -1.550451 -5.887931
  H 1.938376 -2.331819 -5.332696
  H 3.483320 -3.151000 -5.151712
 22
 -0.005252
  C 0.911242 0.227932 0.424560
  C 2.358047 0.046559 0.345457
  H 2.948579 0.123901 1.247669
  C 2.957651 -0.262212 -0.855387
  C 4.348944 -0.325421 -1.027492
  C 5.058337 -0.667129 -2.157857
  C 4.649845 -1.276872 -3.421712
  C 3.191926 -1.583241 -3.724955
  C 3.059842 -2.298603 -5.067024
  H 6.128412 -0.504158 -2.099349
  H 0.587559 0.576359 1.400030
  H 0.407387 -0.719291 0.209034
  H 0.565411 0.910596 -0.353459
  H 2.312705 -0.416487 -1.706023
  H 4.938521 -0.030581 -0.171449
  H 5.232650 -2.207939 -3.503869
  H 5.071080 -0.661128 -4.229578
  H 2.617850 -0.656505 -3.772804
  H 2.771458 -2.221132 -2.945623
  H 3.450994 -1.686878 -5.876713
  H 2.015529 -2.509980 -5.281811
  H 3.597802 -3.243783 -5.062422
 22
 1.043031
  C 1.025255 0.314145 0.517465
  C 2.411955 -0.127902 0.392071
  H 2.968740 -0.366088 1.287875
  C 2.984412 -0.310877 -0.847779
  C 4.366189 -0.455213 -1.032706
  C 5.057512 -0.691985 -2.196475
  C 4.622104 -1.253372 -3.472347
  C 3.155506 -1.561503 -3.730431
  C 2.979455 -2.257361 -5.077253
  H 6.123934 -0.503584 -2.152920
  H 0.769162 0.589705 1.535511
  H 0.352781 -0.492184 0.206151
  H 0.814598 1.135280 -0.168146
  H 2.336788 -0.256185 -1.709982
  H 4.961666 -0.294823 -0.144175
  H 5.207639 -2.177876 -3.599301
  H 5.014199 -0.611914 -4.274014
  H 2.577540 -0.636468 -3.744585
  H 2.763077 -2.208559 -2.943965
  H 3.342514 -1.632732 -5.890205
  H 1.928984 -2.468109 -5.260116
  H 3.519147 -3.201232 -5.104550
 22
 5.306906
  C 0.976270 0.537159 0.490921
  C 2.212563 -0.216721 0.298423
  H 2.591135 -0.798585 1.128470
  C 2.842844 -0.292470 -0.926848
  C 4.224089 -0.470693 -1.030338
  C 5.003352 -0.594121 -2.157183
  C 4.685762 -1.219134 -3.438985
  C 3.264811 -1.693815 -3.709677
  C 3.186337 -2.426327 -5.045702
  H 6.031699 -0.264358 -2.064306
  H 0.755234 0.696595 1.541418
  H 0.134407 -0.013627 0.056334
  H 1.006764 1.483048 -0.048460
  H 2.261619 -0.076470 -1.812240
  H 4.737756 -0.432011 -0.076952
  H 5.374820 -2.073219 -3.524711
  H 5.018060 -0.552369 -4.246282
  H 2.586980 -0.841217 -3.743520
  H 2.936158 -2.365146 -2.914287
  H 3.487818 -1.777177 -5.864651
  H 2.169054 -2.757754 -5.237295
  H 3.830226 -3.302949 -5.049950
 22
 15.300301
  C 1.225714 0.596793 0.817516
  C 2.164995 -0.384966 0.283270
  H 2.328749 -1.288661 0.856888
  C 2.734207 -0.291374 -0.981239
  C 4.092864 -0.522723 -1.127491
  C 4.893015 -0.493308 -2.254033
  C 4.634446 -1.124984 -3.546155
  C 3.266562 -1.760591 -3.767980
  C 3.204121 -2.444867 -5.129626
  H 5.869754 -0.035882 -2.145264
  H 1.114517 0.504842 1.893056
  H 0.234581 0.449578 0.371815
  H 1.516486 1.608545 0.539301
  H 2.144239 0.100429 -1.798242
  H 4.571701 -0.695715 -0.168829
  H 5.420432 -1.883620 -3.668902
  H 4.846526 -0.404185 -4.347500
  H 2.490170 -0.998181 -3.724868
  H 3.066253 -2.495360 -2.986505
  H 3.377828 -1.731653 -5.932208
  H 2.226293 -2.893466 -5.284809
  H 3.950346 -3.232622 -5.205314
 22
 30.788030
  C 1.417126 0.620108 1.050038
  C 1.984647 -0.408527 0.190273
  H 1.842742 -1.442764 0.478381
  C 2.522794 -0.158167 -1.089119
  C 3.850866 -0.472647 -1.218165
  C 4.755689 -0.397742 -2.279462
  C 4.644815 -1.098680 -3.555413
  C 3.328697 -1.821064 -3.827709
  C 3.374273 -2.543221 -5.169805
  H 5.686230 0.126188 -2.094157
  H 1.317183 0.280447 2.075430
  H 0.415835 0.892268 0.692636
  H 1.995901 1.540790 0.997123
  H 1.958796 0.373166 -1.840078
  H 4.206070 -0.848611 -0.260004
  H 5.483439 -1.806762 -3.596515
  H 4.857211 -0.393643 -4.371380
  H 2.509323 -1.103314 -3.840448
  H 3.131893 -2.544331 -3.034848
  H 3.547078 -1.841991 -5.983105
  H 2.433124 -3.052627 -5.359824
  H 4.167860 -3.286916 -5.185501
 22
 50.128553
  C 1.645425 0.518914 1.206698
  C 1.871446 -0.385362 0.090068
  H 1.528530 -1.408632 0.164618
  C 2.294128 0.091918 -1.232688
  C 3.553264 -0.321350 -1.362770
  C 4.629797 -0.342362 -2.269810
  C 4.661424 -1.141336 -3.489946
  C 3.346085 -1.794156 -3.902730
  C 3.519615 -2.606682 -5.181361
  H 5.555876 0.125085 -1.960082
  H 1.572366 -0.004293 2.155341
  H 0.699058 1.046635 1.031504
  H 2.401325 1.303338 1.257466
  H 1.736345 0.766236 -1.859462
  H 3.728152 -0.884960 -0.394665
  H 5.442866 -1.907520 -3.381073
  H 5.035282 -0.499095 -4.298501
  H 2.592530 -1.024036 -4.070282
  H 2.988364 -2.447446 -3.105960
  H 3.853570 -1.974880 -6.001242
  H 2.577278 -3.063678 -5.472076
  H 4.249724 -3.401006 -5.042550
 22
 52.653362
  C 1.835360 0.402069 1.217510
  C 1.874797 -0.350188 -0.039868
  H 1.415931 -1.330196 -0.079249
  C 2.167864 0.319351 -1.329605
  C 3.385656 -0.165659 -1.479966
  C 4.548328 -0.332467 -2.211959
  C 4.654561 -1.210236 -3.384650
  C 3.334076 -1.729313 -3.944402
  C 3.570170 -2.631455 -5.150721
  H 5.472719 0.047151 -1.796138
  H 1.777092 -0.246903 2.085912
  H 0.944287 1.039113 1.193013
  H 2.677611 1.085447 1.318215
  H 1.628292 1.095803 -1.833920
  H 3.362589 -0.845907 -0.464209
  H 5.315146 -2.053133 -3.140864
  H 5.198656 -0.654155 -4.158156
  H 2.706132 -0.888633 -4.241635
  H 2.800943 -2.292174 -3.176852
  H 4.081928 -2.092651 -5.944803
  H 2.624712 -2.993511 -5.546074
  H 4.174281 -3.494261 -4.879271
 22
 45.175884
  C 1.958034 0.403431 1.221586
  C 1.948871 -0.378920 -0.043797
  H 1.455655 -1.346252 -0.064692
  C 2.093291 0.352713 -1.349072
  C 3.297737 -0.075404 -1.601810
  C 4.466179 -0.300262 -2.234505
  C 4.621880 -1.215830 -3.377850
  C 3.326959 -1.719464 -4.004214
  C 3.614157 -2.666851 -5.163923
  H 5.377357 0.069610 -1.779807
  H 1.938305 -0.241986 2.093601
  H 1.073365 1.044975 1.238044
  H 2.811972 1.074645 1.280471
  H 1.483395 1.115734 -1.786991
  H 3.139007 -0.817489 -0.316996
  H 5.243054 -2.064073 -3.059958
  H 5.229107 -0.703663 -4.133997
  H 2.742537 -0.873298 -4.367864
  H 2.729478 -2.242072 -3.255372
  H 4.189939 -2.167996 -5.940189
  H 2.685764 -3.017004 -5.607463
  H 4.175250 -3.535889 -4.827658
 22
 29.807223
  C 1.946567 0.470123 1.285372
  C 2.078499 -0.408796 0.074877
  H 1.584686 -1.381628 0.097614
  C 2.086199 0.275558 -1.264416
  C 3.274829 -0.004996 -1.722441
  C 4.416085 -0.217688 -2.352693
  C 4.603518 -1.168120 -3.467674
  C 3.330648 -1.754454 -4.058270
  C 3.649868 -2.760500 -5.158536
  H 5.319930 0.226083 -1.949223
  H 1.922728 -0.121842 2.194728
  H 1.030083 1.058720 1.221713
  H 2.765888 1.182779 1.346937
  H 1.370646 0.988743 -1.626354
  H 3.151133 -0.783552 -0.026420
  H 5.264446 -1.965869 -3.102408
  H 5.184577 -0.674551 -4.255794
  H 2.714068 -0.955143 -4.471830
  H 2.752181 -2.248016 -3.274732
  H 4.202856 -2.290496 -5.968623
  H 2.733495 -3.171399 -5.573729
  H 4.244518 -3.585199 -4.772726
 22
 17.588223
  C 1.845679 0.559052 1.345907
  C 2.215160 -0.418023 0.253021
  H 1.655343 -1.358322 0.294393
  C 2.210567 0.152102 -1.129103
  C 3.334915 -0.025163 -1.770322
  C 4.457064 -0.291666 -2.388181
  C 4.629183 -1.208067 -3.536725
  C 3.339263 -1.735639 -4.142862
  C 3.627205 -2.721185 -5.268877
  H 5.375408 0.136007 -1.995342
  H 1.712543 0.041036 2.290751
  H 0.924910 1.086076 1.101738
  H 2.626121 1.306122 1.469375
  H 1.406250 0.784356 -1.471841
  H 3.252825 -0.767377 0.363903
  H 5.264796 -2.028391 -3.176868
  H 5.227763 -0.718548 -4.313363
  H 2.745398 -0.908635 -4.535834
  H 2.745088 -2.226305 -3.368059
  H 4.191180 -2.248580 -6.069767
  H 2.696764 -3.092370 -5.690655
  H 4.196529 -3.573362 -4.905360
 22
 13.233454
  C 1.683866 0.575991 1.382220
  C 2.423299 -0.362100 0.450520
  H 1.921402 -1.339636 0.422390
  C 2.513091 0.116719 -0.953216
  C 3.553473 -0.162609 -1.696364
  C 4.607709 -0.476516 -2.397223
  C 4.652964 -1.294728 -3.630815
  C 3.291268 -1.711728 -4.168080
  C 3.442033 -2.598647 -5.397924
  H 5.575635 -0.115249 -2.056688
  H 1.471211 0.080088 2.325279
  H 0.746624 0.911057 0.944504
  H 2.288634 1.454010 1.599393
  H 1.719782 0.754184 -1.325251
  H 3.434898 -0.581596 0.801830
  H 5.269625 -2.171879 -3.396816
  H 5.207174 -0.756444 -4.406890
  H 2.706858 -0.829116 -4.432346
  H 2.744309 -2.250322 -3.391051
  H 3.956511 -2.073118 -6.199094
  H 2.464577 -2.896764 -5.768497
  H 4.003083 -3.499988 -5.162825
 22
 13.118979
  C 1.434628 0.506469 1.231570
  C 2.559065 -0.201986 0.504098
  H 2.400983 -1.288224 0.533501
  C 2.683282 0.156858 -0.932560
  C 3.721790 -0.145353 -1.672925
  C 4.723771 -0.443219 -2.452154
  C 4.693764 -1.290683 -3.668503
  C 3.303474 -1.748075 -4.087437
  C 3.380935 -2.680438 -5.290362
  H 5.705391 -0.049703 -2.197535
  H 1.196203 -0.017496 2.153753
  H 0.536418 0.557994 0.621942
  H 1.723852 1.520218 1.499823
  H 1.879871 0.745283 -1.364216
  H 3.519794 -0.044788 1.004330
  H 5.344823 -2.149878 -3.463565
  H 5.172979 -0.756719 -4.495343
  H 2.686747 -0.885278 -4.342848
  H 2.824537 -2.264027 -3.252420
  H 3.837426 -2.182749 -6.142997
  H 2.383927 -2.998275 -5.584368
  H 3.964364 -3.568320 -5.058728
 22
 12.992312
  C 1.433277 0.504972 1.229181
  C 2.563419 -0.202679 0.508312
  H 2.400927 -1.289339 0.535357
  C 2.691477 0.153202 -0.926713
  C 3.726897 -0.142022 -1.673387
  C 4.726630 -0.440819 -2.454178
  C 4.693701 -1.289994 -3.668616
  C 3.302450 -1.740978 -4.090897
  C 3.378616 -2.679774 -5.288936
  H 5.708991 -0.048305 -2.201256
  H 1.205145 -0.006337 2.160895
  H 0.531579 0.535890 0.623070
  H 1.712096 1.526412 1.479435
  H 1.878365 0.726949 -1.362119
  H 3.519321 -0.044495 1.015432
  H 5.339035 -2.152925 -3.461082
  H 5.179192 -0.760691 -4.494660
  H 2.692407 -0.875363 -4.352872
  H 2.816607 -2.249832 -3.255578
  H 3.840602 -2.188496 -6.142222
  H 2.380967 -2.993938 -5.584838
  H 3.956326 -3.569828 -5.051277
