 13
 0.000000
  C 1.007503 -0.070708 0.049249
  C 2.503708 -0.083959 0.023237
  C 3.217181 -0.595127 -0.980273
  C 4.660032 -0.608539 -1.006603
  C 5.371123 -1.118186 -2.007123
  H 6.446173 -1.124105 -2.018740
  H 0.644470 0.394737 0.962987
  H 0.611920 -1.084555 0.006781
  H 0.611921 0.491040 -0.795811
  H 3.007308 0.350416 0.875989
  H 2.706342 -1.028274 -1.830605
  H 5.165280 -0.173913 -0.153362
  H 4.873136 -1.552487 -2.859731
 13
 -0.106487
  C 1.006020 -0.064659 0.059356
  C 2.500430 -0.077197 0.019821
  C 3.214009 -0.603399 -0.975326
  C 4.657499 -0.605772 -1.015206
  C 5.369532 -1.128603 -2.008357
  H 6.446050 -1.115479 -2.010124
  H 0.642484 0.329484 1.004130
  H 0.608587 -1.070690 -0.073845
  H 0.608903 0.554825 -0.745694
  H 3.012786 0.380680 0.855941
  H 2.708668 -1.063591 -1.815359
  H 5.157813 -0.147095 -0.170794
  H 4.894023 -1.591924 -2.858077
 13
 -0.181573
  C 1.005213 -0.067508 0.064291
  C 2.500070 -0.069089 0.015728
  C 3.212713 -0.607440 -0.973348
  C 4.656272 -0.596717 -1.022286
  C 5.367706 -1.133658 -2.008508
  H 6.442573 -1.113416 -2.014788
  H 0.647496 0.247016 1.037873
  H 0.611336 -1.059868 -0.151930
  H 0.603531 0.616881 -0.683725
  H 3.012326 0.410346 0.841306
  H 2.707117 -1.090631 -1.800965
  H 5.156699 -0.117310 -0.191173
  H 4.893314 -1.620789 -2.843596
 13
 -0.309853
  C 1.004493 -0.065662 0.063742
  C 2.497340 -0.062003 0.010012
  C 3.210920 -0.616667 -0.969252
  C 4.653968 -0.593744 -1.024649
  C 5.366196 -1.145991 -2.001584
  H 6.442063 -1.110031 -2.016127
  H 0.648554 0.177188 1.061565
  H 0.607908 -1.037750 -0.226616
  H 0.600994 0.674833 -0.628450
  H 3.008505 0.441618 0.820106
  H 2.707235 -1.124097 -1.782744
  H 5.153505 -0.087035 -0.208331
  H 4.892854 -1.652065 -2.826943
 13
 -0.464708
  C 1.000818 -0.065201 0.062840
  C 2.493404 -0.055807 0.003862
  C 3.208759 -0.624504 -0.965899
  C 4.651163 -0.587241 -1.029298
  C 5.364651 -1.157042 -1.995031
  H 6.440330 -1.105529 -2.018748
  H 0.648229 0.096174 1.077990
  H 0.604448 -1.009196 -0.304448
  H 0.593733 0.732385 -0.561505
  H 3.001557 0.469442 0.802699
  H 2.709047 -1.158129 -1.764964
  H 5.149294 -0.050197 -0.230945
  H 4.892589 -1.687219 -2.805328
 13
 -0.637465
  C 0.996063 -0.065521 0.062546
  C 2.487392 -0.045962 -0.004435
  C 3.203581 -0.627660 -0.965717
  C 4.645841 -0.575990 -1.036778
  C 5.361301 -1.161398 -1.991772
  H 6.436916 -1.117187 -2.009077
  H 0.653030 0.018430 1.092027
  H 0.599996 -0.980345 -0.374338
  H 0.585710 0.777546 -0.495130
  H 2.993509 0.502992 0.778326
  H 2.704230 -1.182514 -1.750671
  H 5.141348 -0.025841 -0.247781
  H 4.891958 -1.721393 -2.785467
 13
 -0.815342
  C 0.987335 -0.064275 0.055704
  C 2.474698 -0.035261 -0.020276
  C 3.198145 -0.641942 -0.960495
  C 4.640205 -0.578462 -1.030833
  C 5.361144 -1.173957 -1.976545
  H 6.432995 -1.099643 -2.009908
  H 0.655813 -0.064599 1.092511
  H 0.588949 -0.940089 -0.451721
  H 0.576416 0.823951 -0.428331
  H 2.976338 0.538357 0.749347
  H 2.705013 -1.226176 -1.727094
  H 5.128366 0.002717 -0.258374
  H 4.897091 -1.748602 -2.763889
 13
 -0.985451
  C 0.979431 -0.059384 0.038189
  C 2.464952 -0.023285 -0.030526
  C 3.192016 -0.662770 -0.942909
  C 4.633542 -0.580761 -1.024336
  C 5.356779 -1.179621 -1.964052
  H 6.428440 -1.088237 -2.004194
  H 0.647493 -0.135493 1.072252
  H 0.577257 -0.898593 -0.527222
  H 0.563453 0.861651 -0.375030
  H 2.954582 0.581007 0.721509
  H 2.707964 -1.284304 -1.681337
  H 5.117157 0.019769 -0.264842
  H 4.895579 -1.761641 -2.747377
 13
 -1.074079
  C 0.970734 -0.068296 0.043635
  C 2.454957 0.004052 -0.044685
  C 3.182973 -0.624014 -0.966232
  C 4.621530 -0.560295 -1.039438
  C 5.348127 -1.213053 -1.940983
  H 6.419416 -1.128795 -1.984116
  H 0.652009 -0.241373 1.071978
  H 0.578332 -0.863485 -0.585554
  H 0.530372 0.877301 -0.280693
  H 2.941461 0.609452 0.710612
  H 2.691907 -1.230986 -1.718927
  H 5.109280 0.075884 -0.309621
  H 4.884664 -1.847799 -2.680156
 13
 -1.059440
  C 0.953141 -0.069491 0.042802
  C 2.435582 0.007552 -0.052037
  C 3.170201 -0.622718 -0.968828
  C 4.611798 -0.544584 -1.046685
  C 5.339235 -1.206892 -1.938647
  H 6.410828 -1.141958 -1.961579
  H 0.650555 -0.292420 1.065656
  H 0.549356 -0.836756 -0.616483
  H 0.515585 0.890069 -0.230075
  H 2.923729 0.616085 0.698523
  H 2.676313 -1.250425 -1.702356
  H 5.097256 0.080872 -0.309601
  H 4.883355 -1.833425 -2.684242
 13
 -1.139101
  C 0.949478 -0.068600 0.039504
  C 2.431695 -0.003482 -0.052847
  C 3.168122 -0.641652 -0.960977
  C 4.611435 -0.554868 -1.034357
  C 5.345620 -1.201938 -1.931820
  H 6.414635 -1.114295 -1.966908
  H 0.644729 -0.303676 1.053342
  H 0.552224 -0.817694 -0.634511
  H 0.507317 0.903519 -0.221312
  H 2.923686 0.625663 0.685763
  H 2.690361 -1.270047 -1.695993
  H 5.086972 0.081725 -0.305183
  H 4.890658 -1.838747 -2.678251
 13
 -0.766441
  C 0.961127 -0.050743 0.043907
  C 2.451257 -0.030644 -0.012445
  C 3.176037 -0.648194 -0.944317
  C 4.619333 -0.588037 -1.013089
  C 5.338020 -1.151193 -1.977971
  H 6.412111 -1.088727 -2.001727
  H 0.609734 -0.012889 1.074325
  H 0.562412 -0.941561 -0.436809
  H 0.557979 0.819494 -0.475084
  H 2.948826 0.545195 0.757439
  H 2.682661 -1.222140 -1.719125
  H 5.111916 -0.046005 -0.215285
  H 4.872991 -1.701113 -2.778341
 13
 -0.006746
  C 0.955563 -0.054870 0.047744
  C 2.451279 -0.055052 0.007977
  C 3.169441 -0.615026 -0.965839
  C 4.612898 -0.603707 -1.011075
  C 5.326071 -1.151119 -1.988264
  H 6.402147 -1.130921 -1.991597
  H 0.594735 0.209485 1.037981
  H 0.563635 -1.034353 -0.220553
  H 0.563052 0.670636 -0.665586
  H 2.948776 0.414766 0.846279
  H 2.665356 -1.094963 -1.795550
  H 5.110068 -0.118016 -0.180858
  H 4.853912 -1.640951 -2.824209
