 20
 0.000000
  H 1.329252 0.041020 0.049458
  C 2.405576 0.057703 -0.006240
  C 3.148825 -0.031754 1.294845
  H 2.495472 -0.101350 2.158755
  C 3.035943 0.135340 -1.182790
  C 2.377380 0.197630 -2.536908
  C 0.853241 0.209089 -2.543409
  H 0.493487 0.253013 -3.568255
  C 4.495030 0.138268 -1.241295
  C 5.250747 0.204701 -2.338024
  O 6.607914 0.202731 -2.336059
  H 3.778936 0.849340 1.426260
  H 3.803472 -0.908658 1.285253
  H 2.722702 -0.660907 -3.120198
  H 2.736338 1.096047 -3.047155
  H 0.469432 1.074330 -2.007579
  H 0.456822 -0.691005 -2.078956
  H 5.023035 0.080225 -0.298784
  H 4.880173 0.267144 -3.348242
  H 6.932750 0.146453 -1.427791
 20
 -0.677142
  H 1.363844 0.124857 -0.007646
  C 2.441119 0.093372 -0.034645
  C 3.117067 -0.056371 1.295582
  H 2.407314 -0.381328 2.051942
  C 3.083016 0.142496 -1.206034
  C 2.388729 0.192681 -2.545812
  C 0.865783 0.230443 -2.499645
  H 0.469586 0.253464 -3.512490
  C 4.538297 0.157528 -1.262469
  C 5.286746 0.130786 -2.365526
  O 6.643329 0.168067 -2.380246
  H 3.550724 0.888620 1.626494
  H 3.913237 -0.797569 1.229756
  H 2.698994 -0.687308 -3.116427
  H 2.746495 1.073716 -3.085984
  H 0.515128 1.117376 -1.977131
  H 0.470673 -0.650737 -1.999883
  H 5.058327 0.218588 -0.314936
  H 4.900223 0.074142 -3.370445
  H 6.977459 0.219956 -1.475495
 20
 0.131022
  H 1.373413 0.292045 0.003086
  C 2.444309 0.170305 -0.027540
  C 3.107022 -0.075327 1.293817
  H 2.427577 -0.620113 1.947106
  C 3.087413 0.160561 -1.199342
  C 2.392131 0.205806 -2.539854
  C 0.869060 0.231821 -2.488110
  H 0.467722 0.233269 -3.499344
  C 4.543109 0.176246 -1.263616
  C 5.286703 0.055804 -2.363925
  O 6.641212 0.128817 -2.393854
  H 3.383739 0.852303 1.794742
  H 3.989997 -0.692149 1.140667
  H 2.705238 -0.677875 -3.102301
  H 2.743229 1.084147 -3.088737
  H 0.511856 1.125185 -1.981311
  H 0.484937 -0.643266 -1.969417
  H 5.065521 0.345639 -0.330247
  H 4.895515 -0.113455 -3.354201
  H 6.978669 0.286090 -1.502330
 20
 1.700293
  H 1.389817 0.460609 0.023733
  C 2.446082 0.245567 -0.015437
  C 3.089822 -0.084938 1.294514
  H 2.485733 -0.840515 1.798775
  C 3.085254 0.187754 -1.186901
  C 2.389778 0.228594 -2.528061
  C 0.866543 0.227294 -2.474161
  H 0.463322 0.211526 -3.484529
  C 4.541661 0.188464 -1.262992
  C 5.278572 -0.020781 -2.355527
  O 6.631628 0.070972 -2.405351
  H 3.169361 0.773913 1.958827
  H 4.063608 -0.527634 1.101594
  H 2.716176 -0.651202 -3.088033
  H 2.726345 1.110664 -3.080369
  H 0.492088 1.118531 -1.976272
  H 0.501095 -0.649460 -1.944883
  H 5.071686 0.449769 -0.354901
  H 4.882187 -0.284958 -3.322678
  H 6.972253 0.337902 -1.541633
 20
 7.711768
  H 1.484957 0.851409 0.049590
  C 2.458727 0.392330 -0.006423
  C 3.067651 -0.105054 1.266181
  H 2.453648 -0.937622 1.622466
  C 3.085724 0.191367 -1.174060
  C 2.390062 0.221974 -2.517272
  C 0.868048 0.169322 -2.447992
  H 0.452864 0.131965 -3.452880
  C 4.540712 0.192186 -1.255355
  C 5.280325 -0.061702 -2.338985
  O 6.628694 0.082903 -2.404544
  H 3.135799 0.627450 2.064160
  H 4.013674 -0.564542 0.986247
  H 2.740996 -0.648985 -3.074859
  H 2.693487 1.112102 -3.076614
  H 0.466722 1.049080 -1.951610
  H 0.540946 -0.714260 -1.904922
  H 5.068646 0.503604 -0.361188
  H 4.888173 -0.388232 -3.288458
  H 6.959479 0.434563 -1.568094
 20
 19.909402
  H 1.634160 1.185823 0.067825
  C 2.450907 0.489234 -0.003915
  C 3.043133 -0.131427 1.222717
  H 2.393847 -0.963078 1.527501
  C 3.080241 0.179002 -1.156440
  C 2.393104 0.184255 -2.506487
  C 0.871914 0.123838 -2.422760
  H 0.445311 0.032269 -3.419221
  C 4.533310 0.201228 -1.231902
  C 5.286005 -0.063987 -2.313989
  O 6.628133 0.138244 -2.386140
  H 3.199049 0.507690 2.081606
  H 3.874548 -0.699435 0.796633
  H 2.751267 -0.691972 -3.050449
  H 2.686307 1.067813 -3.082574
  H 0.469445 1.022362 -1.963023
  H 0.558024 -0.732758 -1.830597
  H 5.050252 0.525805 -0.335346
  H 4.902718 -0.413723 -3.258820
  H 6.935307 0.568414 -1.578273
 20
 40.470556
  H 1.791323 1.438475 0.046763
  C 2.502906 0.634654 -0.005814
  C 2.979637 -0.156615 1.165420
  H 2.329869 -1.023911 1.360334
  C 3.099459 0.166047 -1.131038
  C 2.402961 0.110385 -2.477242
  C 0.882565 0.082110 -2.366093
  H 0.433782 -0.005029 -3.353076
  C 4.543895 0.254935 -1.222315
  C 5.287305 0.002043 -2.300683
  O 6.630583 0.210264 -2.373119
  H 3.178553 0.355891 2.095727
  H 3.681021 -0.787715 0.557810
  H 2.742344 -0.796407 -2.981336
  H 2.702759 0.959859 -3.100271
  H 0.510136 0.989852 -1.899931
  H 0.561567 -0.765301 -1.763834
  H 5.050214 0.618258 -0.335187
  H 4.906939 -0.365114 -3.239382
  H 6.941257 0.602239 -1.545791
 20
 67.419221
  H 1.886839 1.580447 0.051119
  C 2.507472 0.702230 0.011690
  C 2.899702 -0.145151 1.132621
  H 2.330882 -1.072074 1.265374
  C 3.112293 0.156165 -1.103714
  C 2.408866 0.077140 -2.450024
  C 0.890191 0.058267 -2.324700
  H 0.432389 -0.055154 -3.304397
  C 4.567821 0.260985 -1.202192
  C 5.306331 0.015801 -2.286837
  O 6.650515 0.237522 -2.369140
  H 3.107330 0.299290 2.099340
  H 3.535976 -0.814005 0.274399
  H 2.739285 -0.838126 -2.946355
  H 2.712025 0.917340 -3.084073
  H 0.525637 0.980407 -1.882049
  H 0.570708 -0.770164 -1.695798
  H 5.072242 0.619465 -0.310918
  H 4.920531 -0.349930 -3.224261
  H 6.955528 0.665716 -1.559283
 20
 82.090730
  H 1.946117 1.651801 0.067083
  C 2.518688 0.736972 0.043235
  C 2.793522 -0.114848 1.124310
  H 2.302852 -1.077036 1.187499
  C 3.139974 0.142376 -1.095925
  C 2.410919 0.056307 -2.427236
  C 0.894366 0.031852 -2.270716
  H 0.418025 -0.068921 -3.243088
  C 4.609989 0.275514 -1.209417
  C 5.334095 0.060979 -2.304410
  O 6.685637 0.245899 -2.386393
  H 2.958790 0.295548 2.122741
  H 3.469520 -0.816510 -0.009603
  H 2.728620 -0.856967 -2.936204
  H 2.702156 0.900119 -3.060255
  H 0.535163 0.947567 -1.810129
  H 0.588526 -0.806847 -1.648983
  H 5.117784 0.614673 -0.312679
  H 4.937931 -0.280521 -3.246087
  H 7.013003 0.594608 -1.546841
 20
 64.795568
  H 2.068167 1.722312 0.075481
  C 2.551880 0.755492 0.082167
  C 2.681201 -0.063857 1.146670
  H 2.197402 -1.025491 1.148354
  C 3.170030 0.089039 -1.092382
  C 2.412771 0.026455 -2.406718
  C 0.899728 0.001914 -2.213344
  H 0.399389 -0.084419 -3.175453
  C 4.666676 0.236734 -1.218399
  C 5.370462 0.086212 -2.325678
  O 6.725579 0.253295 -2.415230
  H 2.777651 0.312658 2.168198
  H 3.386700 -0.815318 -0.322196
  H 2.712963 -0.878519 -2.943796
  H 2.695446 0.882403 -3.024570
  H 0.553046 0.911546 -1.733125
  H 0.607824 -0.844111 -1.596929
  H 5.180276 0.525315 -0.308820
  H 4.957549 -0.199608 -3.278820
  H 7.057081 0.643017 -1.593125
 20
 37.399213
  H 2.248899 1.742258 0.007880
  C 2.628623 0.734949 0.085817
  C 2.564292 -0.008264 1.189243
  H 2.190223 -1.018391 1.173890
  C 3.201103 -0.012737 -1.095783
  C 2.417008 -0.021346 -2.396421
  C 0.909220 -0.005684 -2.167867
  H 0.383619 -0.036748 -3.119704
  C 4.686216 0.232453 -1.239534
  C 5.381207 0.150484 -2.360816
  O 6.723352 0.368757 -2.466363
  H 2.546183 0.412721 2.190408
  H 3.305232 -0.950175 -0.492339
  H 2.676821 -0.917889 -2.964235
  H 2.711383 0.844416 -2.993423
  H 0.603911 0.893471 -1.639941
  H 0.604619 -0.867557 -1.578660
  H 5.193172 0.511201 -0.322796
  H 4.962418 -0.118941 -3.316874
  H 7.084602 0.580123 -1.594924
 20
 19.481039
  H 2.456184 1.750751 -0.062245
  C 2.676534 0.701534 0.069284
  C 2.498385 0.065150 1.214484
  H 2.253925 -0.985566 1.247170
  C 3.203191 -0.101665 -1.093078
  C 2.416611 -0.028776 -2.394005
  C 0.910446 -0.013274 -2.155969
  H 0.378342 -0.005760 -3.104605
  C 4.686125 0.153302 -1.235527
  C 5.368398 0.168880 -2.367365
  O 6.710316 0.372771 -2.469948
  H 2.361600 0.541203 2.175652
  H 3.225161 -1.098736 -0.610502
  H 2.667648 -0.894386 -3.010008
  H 2.713511 0.868070 -2.941905
  H 0.614035 0.865898 -1.589550
  H 0.605372 -0.895637 -1.597638
  H 5.202843 0.347588 -0.302521
  H 4.934956 -0.012284 -3.337842
  H 7.060127 0.655726 -1.615496
 20
 10.047229
  H 2.462124 1.666570 -0.151615
  C 2.683148 0.628490 0.055219
  C 2.485526 0.115979 1.255664
  H 2.477073 -0.945220 1.442538
  C 3.207300 -0.190100 -1.091331
  C 2.416149 -0.026497 -2.390444
  C 0.909108 -0.010689 -2.155008
  H 0.381997 0.066902 -3.103488
  C 4.678370 0.121947 -1.232502
  C 5.358183 0.206688 -2.365218
  O 6.690777 0.459161 -2.461896
  H 2.251496 0.739403 2.104265
  H 3.168371 -1.230890 -0.740976
  H 2.655584 -0.859203 -3.054564
  H 2.721469 0.897261 -2.885642
  H 0.616925 0.830810 -1.532715
  H 0.592543 -0.926286 -1.659882
  H 5.199526 0.264151 -0.292072
  H 4.924029 0.077045 -3.343774
  H 7.064011 0.569267 -1.578173
 20
 7.086740
  H 2.738866 1.734047 -0.173442
  C 2.748467 0.673268 0.039457
  C 2.373714 0.215669 1.218165
  H 2.366171 -0.838706 1.442428
  C 3.229563 -0.210765 -1.078925
  C 2.421513 0.018915 -2.358915
  C 0.922364 -0.117811 -2.115724
  H 0.374485 0.018040 -3.045405
  C 4.707319 0.030424 -1.245593
  C 5.349954 0.260971 -2.380495
  O 6.687769 0.474096 -2.493454
  H 2.058872 0.870405 2.014097
  H 3.090697 -1.247055 -0.743589
  H 2.726353 -0.717060 -3.105469
  H 2.640980 1.013916 -2.750575
  H 0.576872 0.624513 -1.400302
  H 0.690054 -1.104336 -1.720077
  H 5.268463 0.012492 -0.317062
  H 4.876303 0.296764 -3.348443
  H 7.094933 0.447001 -1.618291
 20
 6.792060
  H 2.769327 1.740558 -0.180885
  C 2.754197 0.680638 0.037631
  C 2.368721 0.239724 1.220107
  H 2.351698 -0.813265 1.452541
  C 3.229115 -0.210826 -1.076558
  C 2.419389 0.030916 -2.353941
  C 0.923249 -0.141757 -2.116400
  H 0.373517 0.004206 -3.043486
  C 4.708091 0.017698 -1.247077
  C 5.347251 0.271724 -2.378518
  O 6.687070 0.471947 -2.492759
  H 2.053666 0.902801 2.007667
  H 3.081034 -1.250216 -0.755444
  H 2.741748 -0.679708 -3.117063
  H 2.618400 1.038948 -2.721414
  H 0.563088 0.576647 -1.384035
  H 0.710068 -1.141491 -1.744615
  H 5.275040 -0.033965 -0.323364
  H 4.869046 0.343155 -3.342285
  H 7.099993 0.407056 -1.621716
