 17
 0.000000
  H 1.434108 -0.076329 0.038213
  C 2.506427 -0.083601 0.023937
  C 3.219638 -0.595058 -0.980139
  C 4.656813 -0.605592 -1.000817
  C 5.378196 -1.120587 -2.011837
  C 6.815862 -1.130697 -2.031683
  C 7.534114 -1.641944 -3.035351
  C 9.023371 -1.661691 -3.074115
  H 3.004873 0.351464 0.878045
  H 2.708711 -1.028364 -1.830782
  H 5.160480 -0.170718 -0.147089
  H 4.874279 -1.555370 -2.865389
  H 7.322055 -0.696321 -1.178925
  H 7.035363 -2.078019 -3.891425
  H 9.456400 -1.208624 -2.184672
  H 9.382555 -1.116402 -3.947887
  H 9.382556 -2.689085 -3.146794
 17
 0.019798
  H 1.439949 -0.032414 0.030844
  C 2.515651 -0.044958 0.019088
  C 3.207931 -0.629428 -0.957084
  C 4.646492 -0.659214 -0.989163
  C 5.374835 -1.160671 -1.999667
  C 6.811985 -1.175445 -2.020196
  C 7.537772 -1.629998 -3.044262
  C 9.025548 -1.649721 -3.085462
  H 3.009942 0.447485 0.840814
  H 2.690695 -1.119111 -1.772184
  H 5.151738 -0.238364 -0.128414
  H 4.876160 -1.576101 -2.864980
  H 7.310836 -0.786950 -1.141635
  H 7.039140 -2.018116 -3.923542
  H 9.448709 -1.245759 -2.169707
  H 9.387697 -1.062244 -3.929312
  H 9.386303 -2.670078 -3.219891
 17
 0.626546
  H 1.453330 0.087920 -0.039235
  C 2.529210 0.057510 -0.056245
  C 3.204659 -0.697791 -0.920095
  C 4.646508 -0.735843 -0.948749
  C 5.374958 -1.231046 -1.960892
  C 6.812111 -1.238883 -1.986165
  C 7.536229 -1.596278 -3.049001
  C 9.024180 -1.601605 -3.097411
  H 3.037561 0.679810 0.661916
  H 2.680276 -1.315538 -1.637238
  H 5.151244 -0.312011 -0.089286
  H 4.873153 -1.631900 -2.829354
  H 7.311868 -0.925550 -1.077794
  H 7.036188 -1.907713 -3.957700
  H 9.449038 -1.280278 -2.149529
  H 9.378641 -0.936554 -3.885486
  H 9.390965 -2.602655 -3.326583
 17
 2.658034
  H 1.467616 0.219039 -0.226256
  C 2.543799 0.189389 -0.219914
  C 3.228044 -0.775540 -0.824817
  C 4.675208 -0.828646 -0.851124
  C 5.378431 -1.333202 -1.874145
  C 6.817643 -1.357990 -1.930819
  C 7.515206 -1.519258 -3.055564
  C 9.002105 -1.528485 -3.136932
  H 3.042344 0.994420 0.294854
  H 2.704263 -1.573486 -1.336551
  H 5.192106 -0.405658 0.000936
  H 4.847215 -1.718620 -2.734396
  H 7.338003 -1.221741 -0.990825
  H 6.993160 -1.651095 -3.994842
  H 9.449546 -1.399415 -2.154032
  H 9.349513 -0.727002 -3.789932
  H 9.351203 -2.469824 -3.562697
 17
 6.299598
  H 1.522457 0.330733 -0.401230
  C 2.598540 0.300097 -0.400022
  C 3.271229 -0.804815 -0.686252
  C 4.724942 -0.889550 -0.746579
  C 5.367512 -1.430067 -1.786998
  C 6.805437 -1.514657 -1.900202
  C 7.466241 -1.421312 -3.051642
  C 8.950501 -1.484707 -3.186530
  H 3.104205 1.225391 -0.174166
  H 2.736629 -1.722851 -0.899374
  H 5.280246 -0.466591 0.080031
  H 4.781151 -1.813169 -2.613670
  H 7.351489 -1.647164 -0.975444
  H 6.916534 -1.282642 -3.974844
  H 9.425866 -1.637401 -2.219589
  H 9.330061 -0.559940 -3.623022
  H 9.234694 -2.300845 -3.852591
 17
 10.507469
  H 1.477345 0.160038 -0.641783
  C 2.551088 0.233484 -0.658892
  C 3.330439 -0.828701 -0.544234
  C 4.791379 -0.820153 -0.671381
  C 5.384897 -1.483301 -1.661065
  C 6.828536 -1.580427 -1.858686
  C 7.440399 -1.333449 -3.010586
  C 8.913530 -1.421001 -3.224905
  H 2.959971 1.214556 -0.840141
  H 2.895299 -1.794570 -0.310435
  H 5.361488 -0.235290 0.038619
  H 4.741510 -2.023395 -2.347473
  H 7.408404 -1.873803 -0.991378
  H 6.858033 -1.034781 -3.873566
  H 9.421668 -1.746710 -2.320520
  H 9.310587 -0.449767 -3.520615
  H 9.136437 -2.123949 -4.027750
 17
 16.434934
  H 1.433075 -0.147535 -0.779328
  C 2.478475 0.087351 -0.753220
  C 3.399857 -0.813068 -0.459960
  C 4.853724 -0.648633 -0.614879
  C 5.402485 -1.338163 -1.614940
  C 6.826164 -1.564501 -1.876904
  C 7.445164 -1.255549 -3.007759
  C 8.893395 -1.488653 -3.271249
  H 2.751934 1.051423 -1.159023
  H 3.112625 -1.709415 0.084499
  H 5.399499 0.045037 0.011384
  H 4.675675 -1.949345 -2.151204
  H 7.376740 -2.029474 -1.070436
  H 6.888794 -0.795692 -3.815223
  H 9.356377 -2.037494 -2.457091
  H 9.411403 -0.536338 -3.388364
  H 9.027058 -2.047447 -4.194866
 17
 24.272127
  H 1.486195 -0.314322 -1.054481
  C 2.491042 0.013220 -0.863448
  C 3.443804 -0.813160 -0.461057
  C 4.889530 -0.590979 -0.515407
  C 5.439119 -1.298611 -1.501056
  C 6.837963 -1.553326 -1.839708
  C 7.413775 -1.206258 -2.975019
  C 8.835851 -1.502165 -3.330184
  H 2.739944 0.997555 -1.241431
  H 3.163316 -1.669768 0.149623
  H 5.385304 0.158141 0.085256
  H 4.663043 -1.929427 -1.938923
  H 7.392513 -2.122950 -1.100919
  H 6.855559 -0.639234 -3.703790
  H 9.322522 -2.079752 -2.543541
  H 9.394282 -0.577023 -3.489210
  H 8.881649 -2.076765 -4.253378
 17
 48.125039
  H 1.653984 -0.615029 -1.444103
  C 2.525418 -0.147738 -1.003088
  C 3.548953 -0.883383 -0.555542
  C 4.913278 -0.411542 -0.323049
  C 5.588777 -1.048918 -1.291133
  C 6.878837 -1.460836 -1.760122
  C 7.399997 -1.131803 -2.930935
  C 8.730036 -1.595412 -3.416959
  H 2.677066 0.892510 -1.243483
  H 3.295748 -1.753921 0.023638
  H 5.233820 0.320388 0.399944
  H 4.614992 -1.615262 -1.738737
  H 7.418062 -2.138213 -1.101298
  H 6.851585 -0.480280 -3.592989
  H 9.192733 -2.264114 -2.688184
  H 9.397108 -0.753456 -3.605227
  H 8.607085 -2.136525 -4.356746
 17
 73.902288
  H 1.738340 -0.667755 -1.604201
  C 2.562410 -0.198033 -1.094661
  C 3.583723 -0.944870 -0.600007
  C 4.910850 -0.381950 -0.281606
  C 5.658162 -0.978572 -1.193769
  C 6.891309 -1.433873 -1.720047
  C 7.420978 -1.057739 -2.887359
  C 8.686847 -1.609385 -3.444928
  H 2.712254 0.849149 -1.306568
  H 3.319266 -1.775199 0.049410
  H 5.147087 0.359058 0.461345
  H 4.434052 -1.642046 -1.625591
  H 7.386711 -2.206127 -1.138568
  H 6.920505 -0.307761 -3.484689
  H 9.096396 -2.383218 -2.798677
  H 9.429762 -0.818452 -3.557457
  H 8.513249 -2.032440 -4.434706
 17
 83.641483
  H 1.795477 -0.656320 -1.729799
  C 2.599688 -0.197724 -1.180233
  C 3.619205 -1.007172 -0.643455
  C 4.929774 -0.401397 -0.235816
  C 5.761768 -0.951981 -1.074706
  C 6.929229 -1.410172 -1.652226
  C 7.405837 -1.042438 -2.863075
  C 8.642511 -1.601800 -3.471435
  H 2.777736 0.843680 -1.375389
  H 3.312583 -1.817352 0.015451
  H 5.081668 0.354272 0.516545
  H 4.215345 -1.627520 -1.528672
  H 7.448684 -2.189737 -1.100396
  H 6.884792 -0.287386 -3.434402
  H 9.082429 -2.367077 -2.834351
  H 9.380852 -0.813665 -3.631495
  H 8.422923 -2.040332 -4.447502
 17
 81.322356
  H 1.795308 -0.682026 -1.765840
  C 2.596647 -0.197749 -1.232802
  C 3.614547 -1.017054 -0.634202
  C 4.928663 -0.351508 -0.303807
  C 5.839275 -0.952621 -1.000529
  C 6.971768 -1.418972 -1.602281
  C 7.410107 -1.061602 -2.842311
  C 8.634058 -1.617669 -3.475701
  H 2.794436 0.826369 -1.487238
  H 3.287701 -1.674660 0.172349
  H 5.015957 0.497762 0.355452
  H 4.038411 -1.754063 -1.417414
  H 7.520100 -2.184489 -1.058896
  H 6.861305 -0.321333 -3.407296
  H 9.101072 -2.365959 -2.838740
  H 9.358301 -0.824307 -3.672585
  H 8.393528 -2.076161 -4.437082
 17
 76.121818
  H 1.874377 -0.562866 -1.940136
  C 2.594665 -0.180690 -1.236809
  C 3.599917 -1.083028 -0.720384
  C 4.902304 -0.404723 -0.304207
  C 5.931219 -0.856877 -0.926422
  C 6.988299 -1.405730 -1.577363
  C 7.452783 -1.009176 -2.799271
  C 8.624036 -1.626931 -3.474674
  H 2.750971 0.881379 -1.236980
  H 3.275120 -1.729343 0.098749
  H 4.862059 0.398377 0.415465
  H 3.928567 -1.783703 -1.522649
  H 7.484233 -2.234161 -1.078346
  H 6.964756 -0.192151 -3.312599
  H 9.032414 -2.445643 -2.885014
  H 9.410340 -0.885317 -3.635506
  H 8.341214 -2.009730 -4.458164
 17
 75.103743
  H 1.725148 -0.250108 -1.806428
  C 2.494195 -0.068104 -1.078095
  C 3.491783 -1.084292 -0.829011
  C 4.866288 -0.503618 -0.448512
  C 5.880377 -0.999048 -1.051978
  C 7.032061 -1.442232 -1.620593
  C 7.475683 -1.104945 -2.866114
  C 8.746169 -1.606315 -3.449899
  H 2.622951 0.940625 -0.736661
  H 3.231294 -1.792053 -0.035137
  H 4.851454 0.341264 0.223841
  H 3.645988 -1.687345 -1.741083
  H 7.626601 -2.132227 -1.027816
  H 6.875130 -0.454522 -3.485774
  H 9.307852 -2.192136 -2.725453
  H 9.367636 -0.776402 -3.790851
  H 8.544148 -2.232722 -4.321990
 17
 59.467943
  H 2.571509 -0.049528 -2.392637
  C 2.597145 -0.311390 -1.347399
  C 3.511494 -1.192504 -0.866987
  C 5.056297 -0.232583 -0.306792
  C 6.128427 -0.615410 -0.777860
  C 7.066471 -1.328246 -1.526377
  C 7.461906 -0.982387 -2.760439
  C 8.510078 -1.700421 -3.533129
  H 2.037743 0.330903 -0.686109
  H 3.336082 -1.634334 0.103500
  H 4.684451 0.489611 0.371896
  H 3.955231 -1.876954 -1.570277
  H 7.529807 -2.171536 -1.025615
  H 7.003554 -0.132967 -3.247588
  H 8.938791 -2.514400 -2.953471
  H 9.306641 -1.013604 -3.819480
  H 8.089132 -2.108432 -4.452792
