 22
 0.000000
  C 0.921964 0.035119 0.305159
  C 2.390578 0.074825 0.029464
  H 3.026312 0.027997 0.903734
  C 2.979171 0.148480 -1.168766
  C 2.342716 0.218814 -2.538235
  C 0.828922 0.226091 -2.731917
  C 0.496791 0.305003 -4.219870
  C 4.440981 0.142991 -1.215211
  C 5.224179 0.174318 -2.288057
  H 6.299057 0.164731 -2.209414
  H 0.722328 -0.037906 1.372757
  H 0.467961 -0.829536 -0.175250
  H 0.430803 0.937177 -0.052138
  H 2.736351 -0.630119 -3.108248
  H 2.732657 1.125096 -3.015362
  H 0.381709 1.086089 -2.234331
  H 0.384885 -0.683587 -2.329378
  H 0.905301 1.212775 -4.659490
  H -0.581148 0.310799 -4.366740
  H 0.908650 -0.549207 -4.753618
  H 4.927932 0.108307 -0.246782
  H 4.869429 0.210249 -3.304448
 22
 -0.403464
  C 0.919262 0.014755 0.323224
  C 2.369879 0.153778 -0.011972
  H 3.016959 0.217006 0.854981
  C 2.970878 0.161131 -1.206402
  C 2.354647 0.158079 -2.584779
  C 0.838909 0.209935 -2.751493
  C 0.476549 0.342651 -4.228066
  C 4.434269 0.196242 -1.210910
  C 5.243727 0.141346 -2.265004
  H 6.313679 0.158708 -2.142279
  H 0.809295 -0.277071 1.365505
  H 0.454043 -0.746327 -0.295441
  H 0.384202 0.953492 0.182727
  H 2.725859 -0.726693 -3.112735
  H 2.769569 1.030490 -3.102224
  H 0.431553 1.063476 -2.209493
  H 0.379654 -0.699989 -2.365823
  H 0.898743 1.253635 -4.647748
  H -0.603337 0.377011 -4.354104
  H 0.859943 -0.503827 -4.794500
  H 4.884563 0.258307 -0.226858
  H 4.895994 0.073645 -3.281099
 22
 0.728640
  C 0.934710 -0.031935 0.333581
  C 2.361507 0.256824 0.000383
  H 2.991011 0.456536 0.859752
  C 2.961909 0.179222 -1.192606
  C 2.343063 0.117166 -2.570380
  C 0.831859 0.227036 -2.754476
  C 0.493586 0.365639 -4.236303
  C 4.424361 0.235190 -1.212626
  C 5.228587 0.095557 -2.260670
  H 6.298723 0.121514 -2.141787
  H 0.889380 -0.521730 1.305741
  H 0.524172 -0.712849 -0.403066
  H 0.327731 0.870828 0.386954
  H 2.685946 -0.797882 -3.064097
  H 2.789115 0.956142 -3.116442
  H 0.455466 1.099901 -2.219584
  H 0.325328 -0.659239 -2.373042
  H 0.956660 1.256365 -4.656167
  H -0.582450 0.441498 -4.376006
  H 0.850084 -0.499095 -4.792576
  H 4.878907 0.374241 -0.238233
  H 4.876248 -0.058546 -3.265514
 22
 4.041106
  C 0.959791 -0.087699 0.328850
  C 2.339982 0.375853 -0.000221
  H 2.922885 0.748237 0.833733
  C 2.951226 0.190194 -1.176813
  C 2.329265 0.094435 -2.554520
  C 0.825636 0.271035 -2.754210
  C 0.508370 0.394899 -4.242042
  C 4.412339 0.248591 -1.213275
  C 5.211718 0.028110 -2.253242
  H 6.282539 0.046955 -2.139155
  H 1.018092 -0.715486 1.220451
  H 0.634573 -0.730992 -0.480923
  H 0.256288 0.715905 0.531880
  H 2.636160 -0.843138 -3.029184
  H 2.810675 0.903874 -3.114378
  H 0.489822 1.172728 -2.239303
  H 0.266390 -0.577158 -2.360421
  H 1.006784 1.260908 -4.672895
  H -0.562827 0.505680 -4.394755
  H 0.839655 -0.492035 -4.778605
  H 4.872474 0.451208 -0.252125
  H 4.853329 -0.199068 -3.241965
 22
 9.418938
  C 0.994728 -0.145077 0.325927
  C 2.313401 0.462377 -0.021156
  H 2.828361 1.001844 0.763473
  C 2.945843 0.185017 -1.170595
  C 2.324892 0.076752 -2.557424
  C 0.824566 0.297536 -2.758501
  C 0.512578 0.452076 -4.244022
  C 4.396660 0.276204 -1.217136
  C 5.198539 -0.065137 -2.223764
  H 6.267420 -0.017090 -2.117866
  H 1.179013 -0.843769 1.149633
  H 0.701535 -0.760520 -0.517474
  H 0.229761 0.551040 0.639185
  H 2.606147 -0.870255 -3.035738
  H 2.827472 0.874526 -3.113370
  H 0.512891 1.198264 -2.227673
  H 0.239029 -0.533493 -2.375874
  H 0.960868 1.359244 -4.640621
  H -0.561799 0.503411 -4.404105
  H 0.901940 -0.394432 -4.805963
  H 4.850994 0.585879 -0.283356
  H 4.839040 -0.444021 -3.163386
 22
 20.655091
  C 1.029207 -0.172303 0.261834
  C 2.283724 0.574057 -0.046900
  H 2.708403 1.271604 0.658283
  C 2.943790 0.193887 -1.153949
  C 2.319303 0.113109 -2.547314
  C 0.808785 0.298153 -2.725677
  C 0.482139 0.501879 -4.206307
  C 4.416225 0.236324 -1.199669
  C 5.206406 -0.165910 -2.187320
  H 6.271990 -0.165258 -2.068531
  H 1.224508 -0.859825 1.095948
  H 0.973401 -0.873603 -0.587766
  H 0.156811 0.420011 0.511694
  H 2.586219 -0.848047 -3.020692
  H 2.831141 0.891208 -3.120611
  H 0.473663 1.169427 -2.155488
  H 0.260007 -0.571419 -2.375610
  H 0.902849 1.438334 -4.567430
  H -0.593739 0.515663 -4.361890
  H 0.892691 -0.309019 -4.805252
  H 4.906224 0.556583 -0.273307
  H 4.850158 -0.473853 -3.158385
 22
 36.098720
  C 1.062086 -0.228597 0.216825
  C 2.276869 0.601744 -0.044464
  H 2.621681 1.380811 0.604724
  C 2.924491 0.173203 -1.155527
  C 2.306153 0.089646 -2.544284
  C 0.815540 0.369786 -2.713974
  C 0.479319 0.491730 -4.192966
  C 4.382272 0.223101 -1.184755
  C 5.183988 -0.156490 -2.178927
  H 6.252326 -0.156479 -2.063944
  H 1.295825 -0.981161 0.981095
  H 1.246179 -0.932780 -0.625161
  H 0.143233 0.262088 0.489352
  H 2.552007 -0.842387 -3.033046
  H 2.818047 0.897733 -3.066959
  H 0.588442 1.317227 -2.222557
  H 0.198884 -0.403355 -2.264154
  H 0.962476 1.363189 -4.627152
  H -0.593484 0.596522 -4.332064
  H 0.813944 -0.390339 -4.736271
  H 4.839476 0.536856 -0.249199
  H 4.817866 -0.479940 -3.138844
 22
 61.010281
  C 1.142043 -0.239199 0.235465
  C 2.233736 0.696175 -0.112900
  H 2.494978 1.604042 0.412853
  C 2.899799 0.120639 -1.162224
  C 2.325625 0.145433 -2.569713
  C 0.820173 0.362591 -2.714355
  C 0.436286 0.519309 -4.182054
  C 4.352858 0.144790 -1.139719
  C 5.175149 -0.177271 -2.131229
  H 6.239844 -0.155879 -1.998605
  H 1.420713 -1.058490 0.912672
  H 1.480521 -0.912416 -0.616948
  H 0.175338 0.180910 0.499135
  H 2.564525 -0.795097 -3.089712
  H 2.853942 0.941849 -3.095184
  H 0.526401 1.252096 -2.158756
  H 0.270202 -0.482117 -2.298022
  H 0.910377 1.402130 -4.609033
  H -0.642084 0.622512 -4.287586
  H 0.759864 -0.345939 -4.757865
  H 4.782094 0.428016 -0.184427
  H 4.830235 -0.534217 -3.088406
 22
 80.339873
  C 1.167890 -0.176100 0.271727
  C 2.165645 0.742925 -0.108079
  H 2.409613 1.680313 0.369699
  C 2.880359 0.098090 -1.166102
  C 2.307600 0.127055 -2.593287
  C 0.803352 0.343820 -2.721249
  C 0.403820 0.524785 -4.181188
  C 4.347695 0.116717 -1.117322
  C 5.193730 -0.221120 -2.085776
  H 6.259165 -0.207189 -1.927665
  H 1.449069 -1.068050 0.816406
  H 1.854579 -0.886541 -0.812740
  H 0.186897 0.176345 0.599965
  H 2.582687 -0.790613 -3.118647
  H 2.811422 0.954930 -3.105064
  H 0.515724 1.229252 -2.151839
  H 0.260449 -0.507291 -2.305805
  H 0.850151 1.426701 -4.592668
  H -0.676495 0.604833 -4.273777
  H 0.736224 -0.323004 -4.776670
  H 4.750742 0.400010 -0.151099
  H 4.868886 -0.543516 -3.060116
 22
 59.122592
  C 1.173028 -0.095163 0.383196
  C 2.108227 0.741728 -0.132408
  H 2.365497 1.722397 0.254812
  C 2.864026 0.017461 -1.206348
  C 2.304361 0.118716 -2.648331
  C 0.796249 0.298979 -2.752022
  C 0.368691 0.549966 -4.193648
  C 4.341807 0.068104 -1.094917
  C 5.222465 -0.249165 -2.031544
  H 6.282100 -0.185072 -1.849037
  H 1.432929 -1.043568 0.822452
  H 2.154382 -0.871349 -0.929720
  H 0.227541 0.281175 0.774906
  H 2.605525 -0.770496 -3.202444
  H 2.787992 0.967686 -3.143941
  H 0.477366 1.128694 -2.120121
  H 0.290415 -0.598496 -2.384371
  H 0.748504 1.508133 -4.549002
  H -0.716421 0.554007 -4.274794
  H 0.752648 -0.233565 -4.845510
  H 4.700705 0.371741 -0.118115
  H 4.935039 -0.609601 -3.002901
 22
 32.743195
  C 1.161516 -0.023350 0.451666
  C 2.044960 0.713687 -0.196271
  H 2.297248 1.728666 0.060195
  C 2.842741 -0.068265 -1.209027
  C 2.320981 0.123069 -2.658878
  C 0.808696 0.287077 -2.761017
  C 0.380866 0.524357 -4.204266
  C 4.318060 0.021344 -1.077710
  C 5.212502 -0.204325 -2.026877
  H 6.269578 -0.193735 -1.814209
  H 1.402471 -1.010090 0.809097
  H 2.314176 -1.026740 -0.979435
  H 0.303878 0.368962 0.986475
  H 2.641285 -0.730212 -3.252294
  H 2.786094 1.021258 -3.082967
  H 0.498134 1.138852 -2.150024
  H 0.308492 -0.601279 -2.376044
  H 0.801696 1.455394 -4.578577
  H -0.702720 0.590543 -4.275787
  H 0.721643 -0.285950 -4.843750
  H 4.659593 0.255448 -0.075626
  H 4.939911 -0.458574 -3.035839
 22
 14.543392
  C 1.177266 0.090501 0.551410
  C 2.059061 0.705522 -0.217262
  H 2.336817 1.738790 -0.068515
  C 2.829077 -0.107563 -1.223182
  C 2.322999 0.128743 -2.665766
  C 0.801871 0.174197 -2.789326
  C 0.375606 0.540065 -4.206617
  C 4.312716 -0.013027 -1.074534
  C 5.216712 -0.222594 -2.016439
  H 6.271522 -0.165466 -1.802872
  H 1.242706 -0.959550 0.775337
  H 2.428891 -1.111308 -0.991860
  H 0.446276 0.613570 1.149864
  H 2.706332 -0.678091 -3.294568
  H 2.737944 1.067018 -3.045807
  H 0.397553 0.907376 -2.089228
  H 0.384261 -0.800273 -2.526609
  H 0.686777 1.554479 -4.449581
  H -0.705664 0.478970 -4.309053
  H 0.826156 -0.136659 -4.928073
  H 4.641378 0.239073 -0.071413
  H 4.956287 -0.467020 -3.031033
 22
 5.117106
  C 1.169761 0.201373 0.590661
  C 2.112740 0.654491 -0.212979
  H 2.464984 1.674524 -0.134042
  C 2.805742 -0.207409 -1.231516
  C 2.323984 0.133701 -2.652172
  C 0.804120 0.129362 -2.790931
  C 0.376378 0.480626 -4.210973
  C 4.295192 -0.114271 -1.065573
  C 5.202520 -0.103671 -2.022029
  H 6.253584 -0.043552 -1.794436
  H 0.923354 -0.845261 0.660085
  H 2.471607 -1.230611 -1.017578
  H 0.637487 0.856316 1.261504
  H 2.737474 -0.604437 -3.342448
  H 2.711446 1.114741 -2.937847
  H 0.367857 0.845658 -2.092616
  H 0.420099 -0.860283 -2.531727
  H 0.722795 1.476667 -4.478345
  H -0.707222 0.459156 -4.300594
  H 0.793535 -0.228275 -4.923400
  H 4.614457 -0.069713 -0.030680
  H 4.950648 -0.142379 -3.067494
 22
 3.229648
  C 1.300821 0.280293 0.702798
  C 2.131033 0.670124 -0.245174
  H 2.426313 1.707468 -0.332604
  C 2.743451 -0.262697 -1.253832
  C 2.309676 0.109175 -2.675602
  C 0.791841 0.090569 -2.841766
  C 0.380031 0.460600 -4.261509
  C 4.235388 -0.255783 -1.051616
  C 5.166952 0.019346 -1.955233
  H 6.214191 -0.001188 -1.702041
  H 1.004045 -0.751358 0.802667
  H 2.377308 -1.271676 -1.023423
  H 0.878674 0.967679 1.416890
  H 2.750033 -0.604306 -3.375928
  H 2.688124 1.103681 -2.920726
  H 0.338447 0.789742 -2.136063
  H 0.415647 -0.907533 -2.604263
  H 0.742388 1.453996 -4.516991
  H -0.702968 0.455389 -4.360150
  H 0.793302 -0.247762 -4.976870
  H 4.531248 -0.499056 -0.037302
  H 4.936598 0.270049 -2.976395
 22
 3.128012
  C 1.308792 0.287954 0.709419
  C 2.134213 0.669971 -0.246103
  H 2.431803 1.706122 -0.339931
  C 2.740424 -0.265104 -1.256270
  C 2.309123 0.113040 -2.676958
  C 0.791563 0.084870 -2.846322
  C 0.379488 0.459374 -4.264846
  C 4.232480 -0.262263 -1.052664
  C 5.160237 0.018822 -1.948290
  H 6.207104 -0.005221 -1.694231
  H 1.007279 -0.741700 0.816019
  H 2.374817 -1.275611 -1.031442
  H 0.894573 0.980025 1.423808
  H 2.756590 -0.592239 -3.381061
  H 2.680571 1.111988 -2.913681
  H 0.332803 0.777876 -2.137753
  H 0.421493 -0.916822 -2.614095
  H 0.734347 1.456815 -4.514167
  H -0.703239 0.446108 -4.365613
  H 0.799643 -0.241972 -4.983342
  H 4.527432 -0.514664 -0.040378
  H 4.931009 0.279385 -2.967229
