 20
 0.000000
  C 1.007197 -0.072175 0.046489
  C 2.503471 -0.082057 0.025684
  C 3.219375 -0.594861 -0.980908
  C 4.657361 -0.605577 -1.001492
  C 5.377590 -1.120981 -2.013229
  C 6.816259 -1.130660 -2.031727
  C 7.534367 -1.642536 -3.036544
  C 9.024476 -1.661885 -3.074014
  H 0.647107 0.394558 0.962731
  H 0.610022 -1.087286 0.010611
  H 0.609993 0.493579 -0.796205
  H 3.003852 0.353146 0.881922
  H 2.708215 -1.028244 -1.832063
  H 5.161945 -0.170743 -0.147539
  H 4.873507 -1.555903 -2.867359
  H 7.323066 -0.696254 -1.178604
  H 7.035625 -2.078763 -3.893221
  H 9.458585 -1.208779 -2.184206
  H 9.383831 -1.115728 -3.947735
  H 9.383554 -2.689833 -3.146041
 20
 4.429981
  C 1.003434 -0.050322 0.081242
  C 2.475577 -0.057369 -0.029543
  C 3.204557 -0.558739 -1.030440
  C 4.644676 -0.599257 -1.032015
  C 5.381250 -1.100351 -2.040152
  C 6.817499 -1.139292 -2.041863
  C 7.549747 -1.635463 -3.040299
  C 9.038339 -1.683074 -3.057063
  H 0.670144 0.462834 0.973330
  H 0.817608 -1.104701 0.205145
  H 0.491856 0.352017 -0.783162
  H 2.884812 0.346566 0.861377
  H 2.703751 -0.961421 -1.903818
  H 5.139571 -0.194450 -0.157237
  H 4.884462 -1.504094 -2.914395
  H 7.311287 -0.734401 -1.166336
  H 7.057357 -2.040413 -3.915979
  H 9.454253 -1.258987 -2.145620
  H 9.425249 -1.127412 -3.912357
  H 9.383071 -2.713378 -3.155211
 20
 12.194973
  C 1.019920 -0.051541 0.091793
  C 2.480627 -0.060234 -0.089170
  C 3.213897 -0.539909 -1.089183
  C 4.638820 -0.608313 -1.065036
  C 5.377854 -1.081119 -2.066139
  C 6.796688 -1.146796 -2.041050
  C 7.535741 -1.617120 -3.036456
  C 9.022186 -1.692553 -3.026053
  H 0.716545 0.561052 0.919334
  H 1.026173 -1.059213 0.449783
  H 0.412459 0.150157 -0.779325
  H 2.821352 0.329548 0.835608
  H 2.722602 -0.897367 -1.980189
  H 5.117937 -0.248069 -0.173804
  H 4.894748 -1.439876 -2.958916
  H 7.276006 -0.786268 -1.147242
  H 7.056830 -1.977975 -3.930481
  H 9.425375 -1.311693 -2.096168
  H 9.435864 -1.115180 -3.850396
  H 9.349622 -2.722576 -3.154164
 20
 20.012418
  C 1.001843 -0.053831 0.111240
  C 2.452453 -0.063607 -0.120332
  C 3.192459 -0.515702 -1.126665
  C 4.623462 -0.612095 -1.079808
  C 5.379614 -1.067730 -2.093118
  C 6.802597 -1.158065 -2.045372
  C 7.558853 -1.610464 -3.051318
  C 9.044657 -1.709045 -3.015793
  H 0.703573 0.681639 0.856715
  H 1.172951 -0.971408 0.671091
  H 0.329911 -0.055037 -0.732698
  H 2.733892 0.296847 0.842031
  H 2.703226 -0.833278 -2.043335
  H 5.099157 -0.283603 -0.156246
  H 4.907831 -1.388778 -3.006363
  H 7.271927 -0.835751 -1.130715
  H 7.086049 -1.938430 -3.979279
  H 9.439769 -1.364473 -2.057830
  H 9.484067 -1.106141 -3.815263
  H 9.360466 -2.744375 -3.175456
 20
 21.710283
  C 0.988307 -0.045869 0.122010
  C 2.441373 -0.104085 -0.116290
  C 3.192348 -0.515875 -1.137495
  C 4.617750 -0.655823 -1.073294
  C 5.379770 -1.069034 -2.101433
  C 6.810637 -1.172076 -2.048057
  C 7.571226 -1.581569 -3.065853
  C 9.056687 -1.707698 -3.018079
  H 0.685878 0.881235 0.603894
  H 1.201125 -0.757896 0.928913
  H 0.306782 -0.322010 -0.669342
  H 2.703800 0.200313 0.889661
  H 2.710968 -0.797608 -2.066919
  H 5.083793 -0.385578 -0.135671
  H 4.910457 -1.334979 -3.038904
  H 7.276862 -0.901581 -1.108034
  H 7.107854 -1.852891 -4.006570
  H 9.443218 -1.426776 -2.039695
  H 9.516535 -1.068950 -3.775333
  H 9.356457 -2.735295 -3.233730
 20
 27.699406
  C 0.985465 -0.004018 0.113414
  C 2.440648 -0.168116 -0.092857
  C 3.193238 -0.576616 -1.114643
  C 4.620726 -0.698024 -1.056947
  C 5.385866 -1.075472 -2.097602
  C 6.814894 -1.179056 -2.043596
  C 7.577768 -1.554889 -3.074560
  C 9.063562 -1.688682 -3.027255
  H 0.731203 1.018577 0.379925
  H 1.179138 -0.549616 1.053759
  H 0.290951 -0.400907 -0.619464
  H 2.650392 0.041063 0.957412
  H 2.712144 -0.840536 -2.048390
  H 5.082954 -0.467314 -0.106536
  H 4.917695 -1.309859 -3.048302
  H 7.278695 -0.938959 -1.094794
  H 7.114086 -1.793375 -4.027582
  H 9.451344 -1.413917 -2.047818
  H 9.526357 -1.049114 -3.781278
  H 9.358339 -2.716096 -3.247297
 20
 38.605952
  C 0.990509 -0.021346 0.113302
  C 2.443285 -0.154925 -0.097841
  C 3.197851 -0.597823 -1.104297
  C 4.623471 -0.715798 -1.046500
  C 5.391110 -1.048583 -2.099828
  C 6.812951 -1.197178 -2.034493
  C 7.579111 -1.537430 -3.077320
  C 9.061324 -1.690646 -3.025513
  H 0.694683 1.024567 0.211032
  H 1.258570 -0.388394 1.133876
  H 0.299174 -0.550672 -0.527229
  H 2.591326 0.082306 0.962702
  H 2.718378 -0.854837 -2.034700
  H 5.081594 -0.538554 -0.080842
  H 4.926815 -1.229991 -3.067814
  H 7.271890 -1.013669 -1.070952
  H 7.118046 -1.724684 -4.048306
  H 9.445625 -1.458809 -2.035892
  H 9.535978 -1.030649 -3.750836
  H 9.343624 -2.710690 -3.280838
 20
 49.695446
  C 0.989915 -0.014302 0.102954
  C 2.460665 -0.123654 -0.080445
  C 3.203338 -0.609274 -1.075831
  C 4.630296 -0.753317 -1.019892
  C 5.394436 -1.053971 -2.083840
  C 6.816651 -1.214239 -2.025802
  C 7.578166 -1.519486 -3.080781
  C 9.060505 -1.682830 -3.036918
  H 0.652950 1.017261 0.047591
  H 1.289512 -0.228698 1.162768
  H 0.328213 -0.653238 -0.475406
  H 2.527167 0.081702 0.993975
  H 2.722017 -0.863924 -2.003833
  H 5.092074 -0.610191 -0.046729
  H 4.928001 -1.196468 -3.055492
  H 7.278233 -1.068579 -1.057997
  H 7.115613 -1.668008 -4.055962
  H 9.450549 -1.474624 -2.041969
  H 9.537395 -1.008954 -3.750788
  H 9.336419 -2.700990 -3.315023
 20
 62.727504
  C 0.981162 -0.001700 0.095847
  C 2.468463 -0.114761 -0.063067
  C 3.206869 -0.604547 -1.056737
  C 4.640402 -0.752823 -1.007169
  C 5.398668 -1.057515 -2.072717
  C 6.825660 -1.213267 -2.022893
  C 7.580291 -1.518339 -3.080369
  C 9.063468 -1.681965 -3.043633
  H 0.629859 1.017789 -0.024079
  H 1.313198 -0.165511 1.165404
  H 0.336059 -0.682642 -0.457959
  H 2.457504 0.034543 1.034372
  H 2.719185 -0.864476 -1.983759
  H 5.103213 -0.610166 -0.047638
  H 4.930117 -1.203049 -3.034644
  H 7.293474 -1.064532 -1.057512
  H 7.109815 -1.668803 -4.058835
  H 9.459669 -1.469696 -2.051404
  H 9.536873 -1.010788 -3.764023
  H 9.336918 -2.698418 -3.317635
 20
 75.647102
  C 0.970443 -0.026541 0.107984
  C 2.477403 -0.092761 -0.068043
  C 3.215199 -0.566566 -1.065625
  C 4.640773 -0.728557 -1.011474
  C 5.399156 -1.044784 -2.075549
  C 6.823521 -1.210535 -2.022362
  C 7.578589 -1.525150 -3.077085
  C 9.060937 -1.694768 -3.038986
  H 0.568597 0.969134 -0.060351
  H 1.372456 -0.130397 1.173706
  H 0.357398 -0.765886 -0.403594
  H 2.421941 0.035386 1.046856
  H 2.730158 -0.801558 -2.006410
  H 5.106182 -0.580660 -0.045469
  H 4.930280 -1.191659 -3.040261
  H 7.289975 -1.061903 -1.056820
  H 7.112879 -1.677469 -4.045198
  H 9.456095 -1.481313 -2.048272
  H 9.536990 -1.029751 -3.759036
  H 9.331492 -2.715657 -3.310043
 20
 89.024027
  C 0.967226 -0.034243 0.114685
  C 2.473742 -0.102639 -0.063311
  C 3.214249 -0.561989 -1.068446
  C 4.643964 -0.701832 -1.018711
  C 5.402161 -1.034472 -2.078784
  C 6.824593 -1.207525 -2.022814
  C 7.579379 -1.539926 -3.073477
  C 9.056423 -1.701686 -3.035227
  H 0.568275 0.959928 -0.054734
  H 1.413247 -0.128124 1.175705
  H 0.353280 -0.772202 -0.392149
  H 2.380806 0.023713 1.057299
  H 2.730830 -0.812371 -2.007516
  H 5.111053 -0.540990 -0.055813
  H 4.928292 -1.205153 -3.043625
  H 7.291422 -1.039744 -1.063123
  H 7.115605 -1.706683 -4.034347
  H 9.457026 -1.471175 -2.032353
  H 9.526943 -1.040883 -3.768896
  H 9.329785 -2.711605 -3.292085
 20
 99.566624
  C 0.956580 -0.038687 0.119728
  C 2.475458 -0.090139 -0.068564
  C 3.213389 -0.554333 -1.073633
  C 4.639950 -0.715567 -1.016375
  C 5.398196 -1.057367 -2.072643
  C 6.825136 -1.199747 -2.021063
  C 7.580268 -1.537040 -3.068745
  C 9.064959 -1.694104 -3.029738
  H 0.551180 0.953765 -0.055088
  H 1.443595 -0.109836 1.189830
  H 0.346900 -0.788008 -0.382159
  H 2.352216 0.033746 1.073909
  H 2.732097 -0.806116 -2.014292
  H 5.108510 -0.535048 -0.056029
  H 4.927159 -1.236444 -3.031349
  H 7.294191 -1.016953 -1.058761
  H 7.111778 -1.720801 -4.034546
  H 9.452841 -1.458677 -2.056601
  H 9.532288 -1.039451 -3.765292
  H 9.349210 -2.730507 -3.282198
 20
 108.770423
  C 0.947408 -0.029371 0.118549
  C 2.474398 -0.104612 -0.060013
  C 3.212320 -0.563273 -1.069124
  C 4.644095 -0.699658 -1.018691
  C 5.399920 -1.059543 -2.070443
  C 6.827699 -1.197943 -2.021629
  C 7.581197 -1.553272 -3.065241
  C 9.063808 -1.693688 -3.030170
  H 0.566160 0.972270 -0.039309
  H 1.457092 -0.122265 1.198587
  H 0.330246 -0.754343 -0.403507
  H 2.322404 -0.003116 1.095349
  H 2.733529 -0.837974 -2.005276
  H 5.115451 -0.497993 -0.065421
  H 4.923765 -1.266623 -3.023241
  H 7.298952 -0.989525 -1.067639
  H 7.111939 -1.760820 -4.021550
  H 9.458000 -1.430107 -2.051433
  H 9.522244 -1.045095 -3.787978
  H 9.354314 -2.717100 -3.257962
 20
 119.650652
  C 0.943081 -0.039007 0.113697
  C 2.472187 -0.100365 -0.065478
  C 3.211747 -0.565809 -1.069099
  C 4.643739 -0.686382 -1.022172
  C 5.400091 -1.050681 -2.072384
  C 6.827318 -1.194920 -2.021371
  C 7.580792 -1.556092 -3.062003
  C 9.062950 -1.698250 -3.025506
  H 0.551602 0.957573 -0.049930
  H 1.483391 -0.106563 1.228984
  H 0.335573 -0.774669 -0.406317
  H 2.305681 0.014245 1.129436
  H 2.733618 -0.857757 -2.000810
  H 5.116059 -0.479466 -0.068125
  H 4.924022 -1.266599 -3.021930
  H 7.298621 -0.980594 -1.068523
  H 7.112173 -1.765659 -4.017610
  H 9.455622 -1.432633 -2.050002
  H 9.518192 -1.052844 -3.782038
  H 9.356649 -2.724027 -3.251587
