 26
 0.000000
  C 1.019181 0.111284 0.327314
  C 2.493488 0.127327 0.368161
  C 3.242757 0.603691 1.553836
  C 2.433066 1.086255 2.753816
  C 3.362441 1.537025 3.876929
  C 3.157149 -0.328643 -0.766051
  C 4.540535 -0.393150 -0.927058
  C 5.195268 -0.851967 -2.072275
  C 4.533981 -1.343647 -3.296634
  H 3.454707 -1.322016 -3.241046
  O 6.508997 -0.876676 -2.137632
  H 0.561942 0.477369 1.237974
  H 0.665209 -0.903095 0.138400
  H 0.665732 0.713257 -0.510937
  H 3.903797 1.418485 1.237796
  H 3.903208 -0.203549 1.889690
  H 1.795963 0.283394 3.128361
  H 1.796777 1.925612 2.468512
  H 3.997614 0.718900 4.208966
  H 2.784845 1.880572 4.731380
  H 3.998443 2.356864 3.550871
  H 2.533720 -0.657659 -1.585407
  H 5.161662 -0.063654 -0.105804
  H 4.873209 -2.358920 -3.498244
  H 4.872253 -0.749100 -4.144313
  H 6.968323 -0.554788 -1.338251
 26
 0.015932
  C 1.016214 0.012210 0.371436
  C 2.490113 0.072419 0.389205
  C 3.241487 0.577462 1.561931
  C 2.432982 1.110807 2.741562
  C 3.363509 1.621771 3.837777
  C 3.150841 -0.365070 -0.753645
  C 4.533034 -0.471520 -0.900811
  C 5.191794 -0.883867 -2.056320
  C 4.543513 -1.219556 -3.341335
  H 3.468522 -1.104331 -3.320414
  O 6.498312 -0.996601 -2.082909
  H 0.564953 0.298305 1.313080
  H 0.686903 -0.992661 0.104703
  H 0.631593 0.666776 -0.413102
  H 3.918882 1.369464 1.224290
  H 3.887399 -0.229156 1.928365
  H 1.804152 0.322646 3.158882
  H 1.789765 1.930414 2.417128
  H 4.005151 0.824720 4.206877
  H 2.786723 2.003076 4.676739
  H 3.993293 2.428670 3.469747
  H 2.524828 -0.664116 -1.581486
  H 5.151027 -0.239511 -0.044151
  H 4.799419 -2.243844 -3.612225
  H 4.964093 -0.589344 -4.124652
  H 6.948406 -0.783071 -1.244289
 26
 0.394641
  C 1.023202 -0.108656 0.420850
  C 2.494324 0.007327 0.417174
  C 3.245932 0.564277 1.564785
  C 2.433878 1.159892 2.712038
  C 3.360544 1.752065 3.769833
  C 3.148017 -0.409794 -0.737548
  C 4.525012 -0.579369 -0.869270
  C 5.188727 -0.920589 -2.044203
  C 4.561757 -1.007539 -3.380046
  H 3.508127 -0.764081 -3.370270
  O 6.476514 -1.169209 -2.047346
  H 0.581349 0.115171 1.383966
  H 0.724702 -1.108904 0.106910
  H 0.599500 0.573448 -0.319266
  H 3.932624 1.331418 1.192202
  H 3.882457 -0.229171 1.975508
  H 1.816717 0.392627 3.182172
  H 1.778318 1.947488 2.337125
  H 4.009790 0.987592 4.190906
  H 2.780886 2.183888 4.581915
  H 3.982656 2.537915 3.347209
  H 2.519165 -0.666528 -1.577792
  H 5.119055 -0.490913 0.027903
  H 4.706935 -2.010831 -3.780447
  H 5.085074 -0.335169 -4.059362
  H 6.908737 -1.118329 -1.174380
 26
 1.733688
  C 1.028240 -0.264142 0.503565
  C 2.491026 -0.076771 0.446697
  C 3.248589 0.548569 1.554052
  C 2.436002 1.211032 2.664207
  C 3.360287 1.903435 3.661245
  C 3.131360 -0.457364 -0.727430
  C 4.492854 -0.733207 -0.835373
  C 5.175217 -0.990721 -2.019632
  C 4.626035 -0.743424 -3.369983
  H 3.625939 -0.331697 -3.345585
  O 6.407759 -1.439195 -2.016232
  H 0.625310 -0.125289 1.499538
  H 0.759509 -1.252576 0.132831
  H 0.538615 0.449835 -0.162631
  H 3.936774 1.288078 1.133612
  H 3.885019 -0.218968 2.013151
  H 1.841889 0.469676 3.200471
  H 1.757287 1.951148 2.237441
  H 4.021772 1.186268 4.142170
  H 2.779018 2.395962 4.436852
  H 3.969919 2.657771 3.168900
  H 2.502704 -0.626496 -1.590702
  H 5.034736 -0.825539 0.094181
  H 4.634348 -1.671056 -3.942152
  H 5.288745 -0.058647 -3.898322
  H 6.779632 -1.611918 -1.131473
 26
 5.220292
  C 1.066175 -0.451446 0.618537
  C 2.503329 -0.149542 0.481042
  C 3.256039 0.553472 1.544669
  C 2.426047 1.286136 2.597391
  C 3.334038 2.062769 3.545426
  C 3.125161 -0.451873 -0.728603
  C 4.442951 -0.883010 -0.830001
  C 5.137754 -1.085366 -2.017155
  C 4.740012 -0.493416 -3.312712
  H 3.853558 0.121825 -3.230617
  O 6.251906 -1.777258 -2.056268
  H 0.744279 -0.447521 1.653245
  H 0.832467 -1.410165 0.159610
  H 0.473728 0.296222 0.085165
  H 3.948226 1.259729 1.078658
  H 3.889501 -0.177308 2.065929
  H 1.835847 0.581344 3.183832
  H 1.741445 1.981665 2.110067
  H 4.000076 1.392248 4.083690
  H 2.740429 2.605149 4.277065
  H 3.938869 2.785165 3.001870
  H 2.509367 -0.438450 -1.617962
  H 4.921459 -1.155853 0.100775
  H 4.583181 -1.282275 -4.048094
  H 5.566283 0.108985 -3.688544
  H 6.505934 -2.190319 -1.210746
 26
 12.507292
  C 1.157714 -0.613226 0.729849
  C 2.557951 -0.198447 0.535268
  C 3.286088 0.563050 1.573775
  C 2.407054 1.358380 2.539935
  C 3.269236 2.239534 3.435888
  C 3.151786 -0.390832 -0.722129
  C 4.360640 -1.042320 -0.864551
  C 5.063775 -1.207430 -2.053464
  C 4.884520 -0.326617 -3.228805
  H 4.123632 0.428453 -3.061604
  O 5.969571 -2.147326 -2.201459
  H 0.930053 -0.768724 1.777759
  H 0.942133 -1.515393 0.162891
  H 0.475780 0.159432 0.359560
  H 3.990121 1.238850 1.088092
  H 3.897069 -0.127466 2.168346
  H 1.815647 0.692786 3.168748
  H 1.722315 1.988914 1.973655
  H 3.943398 1.635728 4.045354
  H 2.639779 2.826010 4.107693
  H 3.867001 2.930903 2.844503
  H 2.574847 -0.121181 -1.601633
  H 4.746156 -1.490204 0.039988
  H 4.638295 -0.920433 -4.111910
  H 5.837247 0.157485 -3.446521
  H 6.111337 -2.703257 -1.413143
 26
 23.614569
  C 1.269102 -0.689617 0.788111
  C 2.622643 -0.153809 0.548827
  C 3.309176 0.695892 1.550159
  C 2.393465 1.367625 2.577314
  C 3.187541 2.356810 3.422854
  C 3.165049 -0.272926 -0.761136
  C 4.226038 -1.124682 -0.940627
  C 4.943798 -1.358130 -2.121449
  C 5.088713 -0.337702 -3.184952
  H 4.497310 0.550519 -2.976957
  O 5.658547 -2.442566 -2.290271
  H 1.076928 -0.832244 1.848095
  H 1.123186 -1.627257 0.249385
  H 0.511434 0.006820 0.408846
  H 3.898796 1.454567 1.033618
  H 4.031458 0.088935 2.111403
  H 1.944529 0.628949 3.237022
  H 1.593157 1.894591 2.063780
  H 3.986836 1.852333 3.963828
  H 2.537477 2.834577 4.151293
  H 3.630871 3.136129 2.802152
  H 2.657118 0.195758 -1.590447
  H 4.508742 -1.629893 -0.027234
  H 4.809383 -0.752452 -4.154801
  H 6.140612 -0.070262 -3.263014
  H 5.544435 -3.115817 -1.598410
 26
 37.700250
  C 1.417916 -0.856026 0.910650
  C 2.688034 -0.187064 0.573562
  C 3.313577 0.782147 1.500058
  C 2.383162 1.400531 2.547121
  C 3.124205 2.475068 3.344392
  C 3.140170 -0.134031 -0.812553
  C 4.015049 -1.148339 -1.048017
  C 4.833829 -1.425408 -2.162925
  C 5.320706 -0.357102 -3.065434
  H 4.921966 0.612916 -2.789437
  O 5.282062 -2.632043 -2.410083
  H 1.340556 -1.082964 1.975439
  H 1.292870 -1.776387 0.336351
  H 0.587021 -0.204172 0.631263
  H 3.788935 1.581938 0.917066
  H 4.124751 0.278961 2.034655
  H 2.040139 0.637535 3.243002
  H 1.511940 1.839640 2.060133
  H 3.979120 2.054437 3.870385
  H 2.459973 2.921033 4.079734
  H 3.475311 3.266917 2.694147
  H 2.795512 0.594600 -1.517335
  H 4.118190 -1.724612 -0.116975
  H 5.047281 -0.590059 -4.092373
  H 6.409321 -0.331474 -3.040247
  H 4.939257 -3.328169 -1.821102
 26
 49.828143
  C 1.576985 -0.993925 1.014790
  C 2.753024 -0.240127 0.560005
  C 3.350085 0.793615 1.442869
  C 2.406191 1.408032 2.490796
  C 3.112049 2.532022 3.240760
  C 2.954238 -0.068641 -0.884347
  C 3.819932 -1.079565 -1.162894
  C 4.716581 -1.409289 -2.187031
  C 5.477657 -0.360074 -2.902310
  H 5.220496 0.632973 -2.548679
  O 5.056015 -2.646298 -2.471578
  H 1.622376 -1.232186 2.070754
  H 1.435210 -1.911998 0.444848
  H 0.697342 -0.369817 0.838657
  H 3.751281 1.600380 0.819277
  H 4.194995 0.357232 1.979150
  H 2.086157 0.656137 3.209074
  H 1.519804 1.808747 1.995405
  H 3.966016 2.155070 3.799920
  H 2.432049 2.999082 3.943778
  H 3.464475 3.296273 2.550424
  H 2.461862 0.633926 -1.530589
  H 3.888830 -1.556897 -0.117641
  H 5.277970 -0.437132 -3.973521
  H 6.546900 -0.541366 -2.778472
  H 4.537258 -3.330028 -1.998583
 26
 61.131747
  C 1.618647 -1.038319 0.965258
  C 2.748085 -0.206718 0.460473
  C 3.369060 0.842276 1.340954
  C 2.466338 1.330474 2.484425
  C 3.138549 2.479352 3.225281
  C 2.787959 0.064886 -0.999559
  C 3.706490 -0.872877 -1.243560
  C 4.651802 -1.365759 -2.128171
  C 5.532880 -0.422046 -2.864710
  H 5.244105 0.612524 -2.693447
  O 5.030309 -2.627289 -2.168858
  H 1.729253 -1.274368 2.020507
  H 1.507153 -1.967321 0.407638
  H 0.694208 -0.472056 0.824162
  H 3.644026 1.697347 0.722325
  H 4.289317 0.463715 1.791316
  H 2.270416 0.525300 3.190122
  H 1.514295 1.672990 2.080957
  H 4.074887 2.156770 3.677572
  H 2.487392 2.846245 4.018242
  H 3.350275 3.308445 2.551222
  H 2.178018 0.687738 -1.620341
  H 3.737171 -1.194758 -0.016471
  H 5.479413 -0.646886 -3.931390
  H 6.570423 -0.578245 -2.563974
  H 4.458557 -3.246857 -1.682951
 26
 56.236782
  C 1.560412 -1.067901 0.958748
  C 2.768350 -0.291488 0.494910
  C 3.414385 0.780268 1.368640
  C 2.490163 1.311453 2.470332
  C 3.153206 2.489478 3.182230
  C 2.786705 0.034268 -0.994630
  C 3.728176 -0.795314 -1.357072
  C 4.680736 -1.319847 -2.178633
  C 5.571327 -0.384980 -2.923330
  H 5.274969 0.646486 -2.790123
  O 5.031819 -2.588465 -2.228376
  H 1.614846 -1.266394 2.024034
  H 1.461419 -2.009842 0.430210
  H 0.656240 -0.491272 0.754881
  H 3.720634 1.616766 0.739654
  H 4.321855 0.389773 1.844536
  H 2.277846 0.528994 3.202553
  H 1.545236 1.640231 2.035755
  H 4.081692 2.184120 3.658752
  H 2.492109 2.881964 3.948890
  H 3.375396 3.295081 2.481903
  H 2.129798 0.665571 -1.552026
  H 3.599582 -1.136592 0.229605
  H 5.538282 -0.645405 -3.982471
  H 6.600004 -0.525371 -2.597164
  H 4.475385 -3.204070 -1.723380
 26
 37.848234
  C 1.586361 -1.101458 1.062098
  C 2.908447 -0.473872 0.659277
  C 3.462904 0.696278 1.485457
  C 2.440901 1.351358 2.405925
  C 3.047597 2.559760 3.096962
  C 2.891736 -0.068778 -0.824461
  C 3.751531 -0.715913 -1.518727
  C 4.649995 -1.239942 -2.383674
  C 5.700588 -0.349081 -2.935270
  H 5.577320 0.675032 -2.605640
  O 4.815288 -2.515145 -2.615600
  H 1.559413 -1.237103 2.137285
  H 1.462881 -2.069597 0.593105
  H 0.743773 -0.479521 0.772498
  H 3.842663 1.468109 0.817953
  H 4.304752 0.341260 2.075416
  H 2.111536 0.640982 3.158703
  H 1.570592 1.671220 1.836836
  H 3.874468 2.264468 3.734073
  H 2.302378 3.050179 3.714359
  H 3.413678 3.281713 2.374187
  H 2.120933 0.589540 -1.181923
  H 3.661095 -1.272795 0.606037
  H 5.667540 -0.396120 -4.023265
  H 6.679401 -0.725419 -2.637728
  H 4.155837 -3.113516 -2.216693
 26
 31.034882
  C 1.396103 -1.085833 1.187851
  C 2.807776 -0.700362 0.782968
  C 3.438317 0.489499 1.533855
  C 2.459462 1.377114 2.296480
  C 3.178665 2.581898 2.893683
  C 2.854497 -0.363246 -0.713022
  C 3.786214 -0.781706 -1.482018
  C 4.773282 -1.117568 -2.349303
  C 5.754629 -0.093828 -2.776296
  H 5.561232 0.868435 -2.316136
  O 4.935559 -2.316462 -2.852275
  H 1.329042 -1.152584 2.270638
  H 1.138491 -2.059656 0.779844
  H 0.660977 -0.362287 0.847455
  H 3.971469 1.129778 0.826830
  H 4.187368 0.096923 2.223448
  H 1.990414 0.811124 3.102176
  H 1.670367 1.732866 1.632684
  H 3.950550 2.264243 3.591216
  H 2.475118 3.212885 3.431430
  H 3.646175 3.184093 2.117922
  H 2.012084 0.221836 -1.062413
  H 3.451028 -1.575209 0.889695
  H 5.727278 -0.003600 -3.862087
  H 6.759772 -0.434765 -2.523939
  H 4.274880 -2.981431 -2.584983
 26
 30.293441
  C 1.192792 -1.020004 1.270298
  C 2.649688 -0.884775 0.859082
  C 3.416939 0.258823 1.559180
  C 2.561452 1.419270 2.059222
  C 3.437473 2.508754 2.672844
  C 2.757906 -0.666286 -0.650195
  C 3.788869 -0.840714 -1.384971
  C 4.849992 -0.949211 -2.223021
  C 5.569051 0.266690 -2.664618
  H 5.142311 1.167497 -2.235625
  O 5.295459 -2.086643 -2.694332
  H 1.124282 -1.116204 2.349549
  H 0.759436 -1.916605 0.834316
  H 0.602379 -0.163885 0.968738
  H 4.168062 0.671121 0.883656
  H 3.961287 -0.174722 2.401425
  H 1.851978 1.074298 2.808644
  H 1.993748 1.852288 1.234487
  H 4.003800 2.119367 3.515544
  H 2.822928 3.331962 3.030414
  H 4.140028 2.903658 1.943071
  H 1.818193 -0.335017 -1.093297
  H 3.151173 -1.836927 1.074314
  H 5.548344 0.323657 -3.753949
  H 6.621718 0.179999 -2.386696
  H 4.818184 -2.882866 -2.399830
 26
 33.041075
  C 1.068692 -0.837594 1.115912
  C 2.561506 -0.821903 0.827407
  C 3.371895 0.305582 1.518086
  C 2.551739 1.364698 2.248928
  C 3.468649 2.445721 2.812913
  C 2.816221 -0.738162 -0.673587
  C 3.931867 -0.890277 -1.288515
  C 4.985274 -0.948658 -2.141620
  C 5.428368 0.279137 -2.843991
  H 4.816342 1.136233 -2.588180
  O 5.674055 -2.034579 -2.389702
  H 0.889360 -0.745310 2.182969
  H 0.633697 -1.780383 0.793063
  H 0.551012 -0.023593 0.616555
  H 3.981834 0.828992 0.780136
  H 4.062393 -0.156006 2.226306
  H 1.995267 0.914069 3.071435
  H 1.835646 1.830029 1.570952
  H 4.182022 2.019648 3.514731
  H 2.884706 3.197602 3.338523
  H 4.022993 2.942260 2.019949
  H 1.905496 -0.608683 -1.255075
  H 2.981901 -1.788322 1.115796
  H 5.400439 0.105059 -3.919311
  H 6.471587 0.476365 -2.593537
  H 5.378763 -2.840079 -1.924642
