19
 0
 C -3.67351903 -0.60153693 0.08085034
 C -2.20361521 -0.93406599 -0.14469071
 C -2.00528928 -1.51555733 -1.54350527
 C -1.21581493 0.21438079 0.06776008
 C -1.69465498 1.61861767 0.33388934
 O 0.00000000 0.00000000 0.00000000
 H -4.29323635 -1.49863510 -0.02571840
 H -4.03506279 0.13822430 -0.64163550
 H -3.83851864 -0.20716746 1.08897622
 H -1.92916962 -1.69871581 0.59386675
 H -2.23337206 -0.77333172 -2.31630562
 H -2.65177298 -2.38543385 -1.70122127
 H -0.96975700 -1.83992053 -1.69355403
 H -2.77507265 1.69604378 0.44047749
 H -1.38559572 2.26151208 -0.49462052
 H -1.24111403 1.97181881 1.26458251
 O 3.35284803 -0.16801267 0.05299053
 H 3.57725854 0.04440017 0.97140631
 H 2.40000000 0.00000000 0.00000000
