 22
 0.000000
  C 0.976696 0.200581 0.551765
  C 2.422748 0.121909 0.354432
  H 3.075026 0.444236 1.155088
  C 2.983367 -0.346720 -0.811800
  C 4.372103 -0.423604 -1.004602
  C 5.054209 -0.868137 -2.112327
  C 4.615250 -1.387553 -3.406926
  C 3.143509 -1.529415 -3.762252
  C 2.984052 -2.094689 -5.171949
  H 6.133840 -0.835719 -2.031607
  H 0.708700 0.592988 1.527710
  H 0.524086 -0.786258 0.421415
  H 0.523215 0.821933 -0.225427
  H 2.323021 -0.664686 -1.602119
  H 4.987105 -0.090949 -0.176966
  H 5.107853 -2.364553 -3.527053
  H 5.108591 -0.765044 -4.168963
  H 2.652127 -0.555734 -3.724978
  H 2.651268 -2.207024 -3.062615
  H 3.442539 -1.441347 -5.910620
  H 1.930867 -2.194389 -5.422097
  H 3.441663 -3.077836 -5.254370
 22
 4.431286
  C 0.995588 0.241516 0.654238
  C 2.431942 0.132816 0.381462
  H 3.126901 0.443753 1.154522
  C 2.932511 -0.348639 -0.817827
  C 4.296639 -0.449187 -1.068876
  C 5.048162 -0.877823 -2.136817
  C 4.649145 -1.402485 -3.444235
  C 3.180308 -1.549709 -3.813023
  C 3.027987 -2.115323 -5.223068
  H 6.122621 -0.822280 -1.998008
  H 0.787194 0.638759 1.643353
  H 0.513507 -0.734765 0.539942
  H 0.512591 0.866830 -0.103524
  H 2.214379 -0.650321 -1.568457
  H 4.710038 -0.081416 -0.152842
  H 5.155999 -2.374118 -3.562734
  H 5.156916 -0.783148 -4.201599
  H 2.687560 -0.576939 -3.774344
  H 2.686650 -2.225481 -3.112905
  H 3.488996 -1.461136 -5.959611
  H 1.976371 -2.217192 -5.478749
  H 3.487928 -3.097667 -5.303060
 22
 14.437934
  C 1.022922 0.245574 0.664001
  C 2.447334 0.126306 0.369566
  H 3.147507 0.430909 1.139286
  C 2.915922 -0.351849 -0.831325
  C 4.272233 -0.467539 -1.116677
  C 5.060191 -0.881376 -2.149703
  C 4.675065 -1.406089 -3.455632
  C 3.207618 -1.547270 -3.806514
  C 3.032321 -2.111752 -5.209841
  H 6.127366 -0.815237 -1.985374
  H 0.834988 0.639054 1.654704
  H 0.530673 -0.724765 0.552929
  H 0.533822 0.877439 -0.082689
  H 2.146894 -0.636560 -1.548765
  H 4.506568 -0.086583 -0.162359
  H 5.181574 -2.376974 -3.576384
  H 5.181790 -0.789172 -4.214825
  H 2.721098 -0.574069 -3.755941
  H 2.721234 -2.214402 -3.096183
  H 3.485971 -1.460877 -5.953050
  H 1.977056 -2.208163 -5.449887
  H 3.485851 -3.096148 -5.295299
 22
 28.786952
  C 1.031141 0.251405 0.678372
  C 2.454243 0.129296 0.377857
  H 3.150656 0.432928 1.147754
  C 2.912644 -0.349047 -0.825675
  C 4.266000 -0.481496 -1.151542
  C 5.075144 -0.887027 -2.164382
  C 4.694312 -1.411980 -3.470694
  C 3.228469 -1.547392 -3.806393
  C 3.036479 -2.109061 -5.202250
  H 6.135875 -0.815932 -1.988189
  H 0.849514 0.643307 1.667480
  H 0.536381 -0.717105 0.569227
  H 0.540361 0.885081 -0.064669
  H 2.122026 -0.621233 -1.514388
  H 4.355232 -0.091320 -0.172886
  H 5.198353 -2.382139 -3.594675
  H 5.198335 -0.797556 -4.231621
  H 2.748747 -0.576275 -3.749624
  H 2.749153 -2.208849 -3.092768
  H 3.484038 -1.461131 -5.948629
  H 1.980140 -2.200936 -5.430395
  H 3.484373 -3.093539 -5.291962
 22
 43.956890
  C 1.028261 0.245805 0.663542
  C 2.460771 0.128061 0.378964
  H 3.144351 0.433602 1.167055
  C 2.928315 -0.344308 -0.821670
  C 4.293574 -0.487566 -1.167732
  C 5.111698 -0.887564 -2.169586
  C 4.721519 -1.413517 -3.475406
  C 3.240968 -1.540558 -3.786224
  C 3.015457 -2.102525 -5.181608
  H 6.176544 -0.815487 -1.994203
  H 0.833709 0.635585 1.659048
  H 0.536570 -0.725008 0.545450
  H 0.544039 0.883700 -0.082590
  H 2.114314 -0.610693 -1.509168
  H 4.250919 -0.102150 -0.194084
  H 5.219839 -2.386080 -3.606534
  H 5.218370 -0.800668 -4.242727
  H 2.767340 -0.562714 -3.718366
  H 2.769249 -2.199977 -3.059349
  H 3.452286 -1.457896 -5.937406
  H 1.954026 -2.186997 -5.388485
  H 3.454287 -3.090131 -5.280507
 22
 56.600946
  C 1.012513 0.254807 0.675931
  C 2.467060 0.130162 0.410635
  H 3.126459 0.410844 1.225419
  C 2.944436 -0.309163 -0.784710
  C 4.316114 -0.494502 -1.190287
  C 5.113861 -0.880592 -2.176174
  C 4.732832 -1.420175 -3.496492
  C 3.246073 -1.552935 -3.791473
  C 3.018617 -2.116407 -5.190164
  H 6.180974 -0.804413 -2.015729
  H 0.809261 0.619925 1.685445
  H 0.511989 -0.711607 0.531328
  H 0.544501 0.927530 -0.053144
  H 2.134502 -0.546654 -1.489496
  H 4.197499 -0.114513 -0.185407
  H 5.230733 -2.392126 -3.625460
  H 5.216609 -0.792850 -4.257025
  H 2.767072 -0.576370 -3.720922
  H 2.780703 -2.218492 -3.062639
  H 3.449339 -1.467587 -5.946546
  H 1.955907 -2.206638 -5.391308
  H 3.464096 -3.101372 -5.291652
 22
 61.124756
  C 0.997270 0.258707 0.669969
  C 2.454460 0.120985 0.459284
  H 3.069900 0.345137 1.332119
  C 2.968345 -0.249438 -0.731152
  C 4.332096 -0.496684 -1.210656
  C 5.106148 -0.862460 -2.184354
  C 4.743528 -1.427870 -3.536089
  C 3.251519 -1.570675 -3.796212
  C 3.018409 -2.140079 -5.185113
  H 6.188210 -0.777032 -2.050136
  H 0.772281 0.563753 1.697277
  H 0.488327 -0.681331 0.465632
  H 0.578436 0.997401 -0.010481
  H 2.190084 -0.421151 -1.495417
  H 4.176358 -0.139216 -0.175841
  H 5.230932 -2.398201 -3.647824
  H 5.191290 -0.777632 -4.289228
  H 2.766310 -0.595874 -3.729425
  H 2.802839 -2.240954 -3.061457
  H 3.434169 -1.493820 -5.942173
  H 1.961382 -2.240151 -5.372085
  H 3.471192 -3.113613 -5.283592
 22
 65.546052
  C 0.978805 0.267335 0.680319
  C 2.448035 0.109203 0.498587
  H 3.048055 0.279013 1.386898
  C 2.984528 -0.212272 -0.690636
  C 4.344189 -0.496206 -1.224007
  C 5.111397 -0.854102 -2.204715
  C 4.740838 -1.423313 -3.544094
  C 3.262098 -1.574612 -3.791216
  C 3.016225 -2.161635 -5.187371
  H 6.189604 -0.764578 -2.089263
  H 0.736426 0.523339 1.706884
  H 0.455423 -0.652651 0.419215
  H 0.592022 1.051765 0.029475
  H 2.244609 -0.328729 -1.491198
  H 4.149481 -0.150373 -0.177142
  H 5.234782 -2.385973 -3.642290
  H 5.177350 -0.772454 -4.296142
  H 2.770742 -0.600145 -3.733604
  H 2.822262 -2.244224 -3.047171
  H 3.428908 -1.510046 -5.965442
  H 1.942388 -2.270067 -5.368422
  H 3.480252 -3.149702 -5.284056
 22
 69.895983
  C 0.971880 0.262362 0.658177
  C 2.437029 0.083060 0.515135
  H 3.013077 0.187714 1.423147
  C 3.007443 -0.181805 -0.676780
  C 4.373525 -0.487720 -1.226698
  C 5.135721 -0.837234 -2.211735
  C 4.751373 -1.416549 -3.548900
  C 3.253882 -1.575879 -3.778258
  C 2.989815 -2.176667 -5.162279
  H 6.212011 -0.738982 -2.102002
  H 0.699625 0.461329 1.693108
  H 0.440863 -0.626324 0.323290
  H 0.625427 1.090824 0.043729
  H 2.302071 -0.233520 -1.510672
  H 4.124427 -0.150691 -0.180494
  H 5.250918 -2.382785 -3.643734
  H 5.178598 -0.764582 -4.314023
  H 2.760971 -0.593309 -3.722553
  H 2.825794 -2.241354 -3.013660
  H 3.386626 -1.539703 -5.944134
  H 1.925435 -2.288584 -5.327527
  H 3.449405 -3.154301 -5.254874
 22
 73.388553
  C 0.962071 0.259999 0.636852
  C 2.431221 0.053281 0.523088
  H 2.986229 0.083360 1.448611
  C 3.027736 -0.151041 -0.667468
  C 4.401102 -0.481545 -1.228281
  C 5.151110 -0.824933 -2.225282
  C 4.749229 -1.410608 -3.553178
  C 3.254415 -1.577653 -3.758675
  C 2.972825 -2.189344 -5.129311
  H 6.225180 -0.720719 -2.128918
  H 0.663984 0.395972 1.674436
  H 0.419580 -0.590601 0.226412
  H 0.652559 1.136604 0.069396
  H 2.345167 -0.124324 -1.532963
  H 4.103092 -0.149975 -0.177268
  H 5.249586 -2.371818 -3.649224
  H 5.159994 -0.762239 -4.325848
  H 2.761085 -0.602339 -3.705152
  H 2.844258 -2.232751 -2.985724
  H 3.356487 -1.555091 -5.924280
  H 1.903829 -2.307904 -5.278444
  H 3.436975 -3.168271 -5.220714
 22
 76.029199
  C 0.960657 0.267832 0.621537
  C 2.415384 0.008290 0.535317
  H 2.940919 -0.067906 1.474972
  C 3.044184 -0.113667 -0.658797
  C 4.418059 -0.468384 -1.225890
  C 5.158518 -0.798075 -2.232875
  C 4.748117 -1.397825 -3.554240
  C 3.244423 -1.588849 -3.746218
  C 2.956886 -2.219500 -5.113227
  H 6.234301 -0.682029 -2.151393
  H 0.633802 0.321621 1.653922
  H 0.399018 -0.515970 0.116050
  H 0.706911 1.205506 0.127687
  H 2.402255 0.018967 -1.529086
  H 4.077596 -0.149697 -0.167155
  H 5.264121 -2.359384 -3.649917
  H 5.144359 -0.744752 -4.338681
  H 2.737187 -0.619101 -3.697732
  H 2.848474 -2.242651 -2.960293
  H 3.324941 -1.587596 -5.918407
  H 1.887402 -2.353862 -5.251910
  H 3.433623 -3.193587 -5.199815
 22
 77.890540
  C 0.956754 0.273344 0.605786
  C 2.398359 -0.036584 0.537413
  H 2.893733 -0.222732 1.478344
  C 3.057704 -0.075434 -0.651010
  C 4.429542 -0.458318 -1.233463
  C 5.163692 -0.778717 -2.245462
  C 4.741321 -1.392462 -3.562719
  C 3.245008 -1.599133 -3.731176
  C 2.946108 -2.242394 -5.084096
  H 6.236554 -0.653287 -2.178038
  H 0.597074 0.242169 1.635490
  H 0.380768 -0.437984 0.007151
  H 0.754738 1.268208 0.194530
  H 2.447740 0.170730 -1.531766
  H 4.057548 -0.140939 -0.154899
  H 5.264343 -2.347976 -3.661089
  H 5.117820 -0.741327 -4.353616
  H 2.731559 -0.640642 -3.683209
  H 2.868567 -2.244448 -2.937436
  H 3.296990 -1.612367 -5.900650
  H 1.875151 -2.389168 -5.206572
  H 3.432780 -3.213161 -5.168807
 22
 78.954365
  C 0.948078 0.297424 0.612290
  C 2.375011 -0.085109 0.542449
  H 2.841481 -0.398151 1.468536
  C 3.060603 -0.040189 -0.639002
  C 4.417376 -0.447111 -1.256270
  C 5.161344 -0.757940 -2.266889
  C 4.739964 -1.386325 -3.574202
  C 3.243894 -1.618025 -3.727548
  C 2.945410 -2.276195 -5.071123
  H 6.234714 -0.617065 -2.203070
  H 0.557605 0.175020 1.618947
  H 0.355279 -0.307507 -0.073840
  H 0.810772 1.337312 0.309074
  H 2.491362 0.315798 -1.501597
  H 4.032661 -0.133430 -0.140057
  H 5.276658 -2.331885 -3.671779
  H 5.097407 -0.734975 -4.370912
  H 2.715215 -0.666741 -3.681468
  H 2.883995 -2.261393 -2.923767
  H 3.279189 -1.646403 -5.894679
  H 1.877666 -2.442215 -5.184380
  H 3.447706 -3.238181 -5.152303
 22
 77.748022
  C 0.952307 0.298718 0.635237
  C 2.362048 -0.129954 0.536944
  H 2.806918 -0.567984 1.421005
  C 3.068542 0.027552 -0.631396
  C 4.364270 -0.418613 -1.294811
  C 5.137410 -0.738664 -2.275971
  C 4.736663 -1.391930 -3.574271
  C 3.240507 -1.619579 -3.739951
  C 2.950574 -2.313814 -5.066500
  H 6.211438 -0.589696 -2.194613
  H 0.540942 0.074740 1.612079
  H 0.345974 -0.193254 -0.127969
  H 0.858422 1.371975 0.456242
  H 2.530538 0.493639 -1.458784
  H 4.008590 -0.082865 -0.136333
  H 5.268346 -2.344672 -3.645345
  H 5.106868 -0.757820 -4.381283
  H 2.716838 -0.661957 -3.723261
  H 2.867353 -2.237765 -2.919993
  H 3.296214 -1.710265 -5.904146
  H 1.883129 -2.475945 -5.185971
  H 3.446563 -3.280551 -5.115755
