 22
 0.000000
  C 0.980240 0.159571 0.449096
  C 2.450696 0.135651 0.389297
  C 3.235741 0.599863 1.544183
  H 2.611461 0.930023 2.366385
  C 3.042937 -0.333469 -0.778397
  C 4.424664 -0.417880 -0.989405
  C 5.088740 -0.866096 -2.107378
  C 4.628773 -1.385185 -3.401918
  C 3.148305 -1.513086 -3.720829
  H 3.032116 -1.914877 -4.723113
  H 6.170195 -0.843253 -2.050818
  H 0.607360 0.539676 1.394756
  H 0.580953 -0.843332 0.288696
  H 0.580729 0.772430 -0.360713
  H 3.891523 1.420451 1.248132
  H 3.891875 -0.197171 1.898143
  H 2.374984 -0.648476 -1.562212
  H 5.056067 -0.090460 -0.173847
  H 5.107822 -2.366319 -3.524545
  H 5.107900 -0.760652 -4.168441
  H 2.655401 -0.544395 -3.691387
  H 2.655500 -2.193282 -3.030413
 22
 4.263310
  C 0.926732 0.156994 0.439423
  C 2.506578 0.136250 0.391130
  C 3.236577 0.607013 1.565420
  H 2.571829 0.925979 2.360254
  C 3.061757 -0.333825 -0.779857
  C 4.444628 -0.420944 -0.998446
  C 5.096947 -0.871290 -2.123133
  C 4.623427 -1.387492 -3.408875
  C 3.142324 -1.513412 -3.717834
  H 3.022542 -1.915836 -4.720788
  H 6.179224 -0.847621 -2.066814
  H 0.598741 0.540884 1.395395
  H 0.577609 -0.858769 0.285721
  H 0.579148 0.785488 -0.373910
  H 3.890955 1.438211 1.295682
  H 3.890605 -0.180440 1.944940
  H 2.383381 -0.644872 -1.555131
  H 5.083057 -0.095328 -0.187364
  H 5.107237 -2.365960 -3.542832
  H 5.105342 -0.771960 -4.182380
  H 2.648423 -0.545317 -3.690371
  H 2.650769 -2.195452 -3.028523
 22
 14.037690
  C 0.878370 0.161979 0.431879
  C 2.550531 0.138343 0.402378
  C 3.228056 0.612693 1.597098
  H 2.535327 0.926619 2.374716
  C 3.068725 -0.335708 -0.779878
  C 4.448656 -0.424605 -1.012275
  C 5.091621 -0.871251 -2.137954
  C 4.617401 -1.387089 -3.415116
  C 3.139382 -1.529020 -3.736403
  H 3.034074 -1.932495 -4.741038
  H 6.174679 -0.841896 -2.082539
  H 0.617178 0.550954 1.402524
  H 0.585336 -0.871393 0.306334
  H 0.597657 0.829129 -0.371504
  H 3.887722 1.447644 1.348296
  H 3.880924 -0.168564 1.994021
  H 2.375687 -0.641373 -1.549219
  H 5.090180 -0.099330 -0.203407
  H 5.125100 -2.352940 -3.558098
  H 5.110123 -0.780836 -4.190299
  H 2.633977 -0.566571 -3.716209
  H 2.648668 -2.219063 -3.054244
 22
 29.969124
  C 0.804575 0.150981 0.397675
  C 2.630145 0.140395 0.419361
  C 3.235572 0.627448 1.643054
  H 2.501023 0.933076 2.381835
  C 3.137487 -0.332609 -0.754832
  C 4.523220 -0.428913 -1.024096
  C 5.125832 -0.883334 -2.174136
  C 4.606193 -1.396605 -3.441735
  C 3.120564 -1.520793 -3.715516
  H 2.973554 -1.923379 -4.714769
  H 6.210392 -0.869180 -2.158810
  H 0.524505 0.538150 1.359746
  H 0.525530 -0.879487 0.266425
  H 0.542742 0.811725 -0.409690
  H 3.869949 1.490586 1.414020
  H 3.865206 -0.156445 2.077646
  H 2.434245 -0.635448 -1.511547
  H 5.192816 -0.108591 -0.236138
  H 5.107525 -2.364500 -3.593470
  H 5.089736 -0.794586 -4.225923
  H 2.630337 -0.551418 -3.671032
  H 2.645954 -2.198243 -3.009923
 22
 46.227912
  C 0.694101 0.155226 0.445012
  C 2.660563 0.148758 0.434609
  C 3.261200 0.651344 1.653510
  H 2.531260 0.949185 2.400786
  C 3.143649 -0.333862 -0.748424
  C 4.525566 -0.444678 -1.031512
  C 5.128456 -0.897672 -2.181965
  C 4.625445 -1.405500 -3.459142
  C 3.143775 -1.525365 -3.758269
  H 3.013110 -1.924760 -4.761170
  H 6.212834 -0.886471 -2.155175
  H 0.456836 0.555095 1.413560
  H 0.449318 -0.883575 0.309703
  H 0.450830 0.803483 -0.378355
  H 3.908373 1.504976 1.426814
  H 3.902441 -0.120009 2.092524
  H 2.432045 -0.626478 -1.501534
  H 5.197071 -0.129527 -0.243309
  H 5.108751 -2.383016 -3.605573
  H 5.106878 -0.793381 -4.236394
  H 2.653603 -0.555597 -3.720841
  H 2.654686 -2.204283 -3.064036
 22
 60.986443
  C 0.635637 0.147680 0.408209
  C 2.717852 0.159271 0.410833
  C 3.273737 0.628493 1.651814
  H 2.516708 0.902875 2.380256
  C 3.183239 -0.290101 -0.775247
  C 4.572189 -0.418859 -1.051044
  C 5.158327 -0.891984 -2.194703
  C 4.619482 -1.414268 -3.455202
  C 3.121988 -1.513088 -3.683917
  H 2.940447 -1.921007 -4.675325
  H 6.243091 -0.887648 -2.188665
  H 0.396308 0.520074 1.384871
  H 0.432147 -0.892519 0.235420
  H 0.421342 0.803776 -0.414541
  H 3.902217 1.505036 1.465157
  H 3.909396 -0.147194 2.090465
  H 2.479029 -0.585176 -1.534654
  H 5.239361 -0.116398 -0.254286
  H 5.074602 -2.404631 -3.599549
  H 5.069489 -0.811219 -4.256860
  H 2.649358 -0.534930 -3.636619
  H 2.655180 -2.178877 -2.961884
 22
 71.888734
  C 0.611678 0.105521 0.394556
  C 2.798033 0.150886 0.419084
  C 3.263062 0.677606 1.667261
  H 2.458455 0.957708 2.342070
  C 3.207766 -0.316969 -0.731607
  C 4.606965 -0.466878 -1.040175
  C 5.160462 -0.926472 -2.190920
  C 4.600311 -1.416218 -3.470831
  C 3.098502 -1.474703 -3.694323
  H 2.909418 -1.863068 -4.692069
  H 6.245334 -0.945859 -2.197891
  H 0.403618 0.505120 1.367202
  H 0.471987 -0.948894 0.253805
  H 0.441514 0.745775 -0.449395
  H 3.860442 1.575703 1.482830
  H 3.880099 -0.068368 2.177499
  H 2.497431 -0.600642 -1.487725
  H 5.280789 -0.164014 -0.250881
  H 5.024951 -2.414626 -3.640402
  H 5.055605 -0.812427 -4.267066
  H 2.650202 -0.485539 -3.640038
  H 2.618057 -2.146703 -2.987202
 22
 80.095587
  C 0.544512 0.106220 0.306999
  C 2.893233 0.146181 0.436916
  C 3.253929 0.658893 1.710895
  H 2.397364 0.922542 2.342698
  C 3.293446 -0.314346 -0.706927
  C 4.700789 -0.448501 -1.067855
  C 5.187202 -0.915552 -2.234573
  C 4.574386 -1.417998 -3.482401
  C 3.044519 -1.473183 -3.610551
  H 2.799966 -1.869679 -4.587405
  H 6.271069 -0.926638 -2.307307
  H 0.314551 0.496213 1.270807
  H 0.446667 -0.952360 0.139185
  H 0.476501 0.764487 -0.543585
  H 3.848063 1.573529 1.573687
  H 3.842721 -0.084854 2.257924
  H 2.580464 -0.617290 -1.453807
  H 5.398348 -0.131247 -0.297872
  H 4.989972 -2.419191 -3.659844
  H 4.984206 -0.813963 -4.300458
  H 2.604612 -0.474856 -3.533590
  H 2.606151 -2.132969 -2.869216
 22
 86.043641
  C 0.507026 0.048167 0.224116
  C 3.079849 0.174885 0.478759
  C 3.220122 0.712904 1.783103
  H 2.261837 0.906679 2.266600
  C 3.402659 -0.296968 -0.665965
  C 4.794637 -0.475035 -1.099722
  C 5.208305 -0.946548 -2.273891
  C 4.517570 -1.428249 -3.511419
  C 2.994479 -1.432242 -3.575752
  H 2.687926 -1.818968 -4.545532
  H 6.286932 -1.010405 -2.380118
  H 0.277168 0.445950 1.192799
  H 0.523888 -1.014649 0.081999
  H 0.509148 0.701605 -0.626282
  H 3.732056 1.679045 1.734359
  H 3.745036 -0.000375 2.425534
  H 2.675939 -0.588983 -1.401110
  H 5.526502 -0.182527 -0.365243
  H 4.877805 -2.447960 -3.688581
  H 4.906529 -0.828573 -4.342276
  H 2.592644 -0.426154 -3.486758
  H 2.568934 -2.085548 -2.817748
 22
 88.834240
  C 0.432284 0.043914 0.170315
  C 3.155002 0.179978 0.500278
  C 3.229038 0.708790 1.803995
  H 2.243545 0.880517 2.238993
  C 3.462920 -0.292003 -0.646080
  C 4.843127 -0.471012 -1.116471
  C 5.221308 -0.947238 -2.302037
  C 4.493521 -1.430252 -3.508472
  C 2.969240 -1.426357 -3.525099
  H 2.631807 -1.809232 -4.486366
  H 6.294354 -1.009658 -2.443197
  H 0.188090 0.438359 1.135910
  H 0.467493 -1.018769 0.027046
  H 0.466144 0.702089 -0.676192
  H 3.722150 1.684989 1.787531
  H 3.730386 0.000625 2.469322
  H 2.719513 -0.587668 -1.371237
  H 5.598035 -0.177530 -0.402446
  H 4.847445 -2.448608 -3.699895
  H 4.854127 -0.825618 -4.347490
  H 2.574327 -0.417882 -3.424357
  H 2.563014 -2.081650 -2.757666
 22
 90.676172
  C 0.368402 0.025043 0.106809
  C 3.236330 0.187909 0.530830
  C 3.228873 0.710400 1.820198
  H 2.214419 0.865514 2.188270
  C 3.531356 -0.281975 -0.622918
  C 4.895038 -0.475086 -1.128530
  C 5.231595 -0.952804 -2.328243
  C 4.457832 -1.424585 -3.505303
  C 2.935440 -1.410749 -3.464853
  H 2.560391 -1.790166 -4.412799
  H 6.298089 -1.024106 -2.506812
  H 0.108018 0.414534 1.067483
  H 0.432203 -1.033808 -0.034459
  H 0.436685 0.687179 -0.731030
  H 3.701833 1.694550 1.834182
  H 3.693647 0.011034 2.517076
  H 2.773748 -0.567867 -1.340497
  H 5.672857 -0.191791 -0.434555
  H 4.795652 -2.445034 -3.711546
  H 4.793118 -0.825849 -4.358037
  H 2.550693 -0.399724 -3.350012
  H 2.553189 -2.065432 -2.684513
 22
 91.944507
  C 0.294926 -0.003662 0.045484
  C 3.312976 0.212961 0.556123
  C 3.244389 0.721379 1.849612
  H 2.206081 0.843946 2.167455
  C 3.603752 -0.250908 -0.602279
  C 4.940949 -0.473608 -1.137089
  C 5.238118 -0.962844 -2.346182
  C 4.418790 -1.428667 -3.502405
  C 2.897024 -1.393910 -3.424872
  H 2.492347 -1.772177 -4.361585
  H 6.299195 -1.049622 -2.554436
  H -0.001859 0.374064 1.000863
  H 0.376429 -1.059073 -0.105386
  H 0.368073 0.661692 -0.788382
  H 3.690864 1.716731 1.899263
  H 3.696636 0.029588 2.563246
  H 2.829122 -0.531260 -1.301659
  H 5.742833 -0.206643 -0.468351
  H 4.736107 -2.455244 -3.713874
  H 4.739699 -0.838191 -4.367084
  H 2.528322 -0.377464 -3.305905
  H 2.524608 -2.040262 -2.633074
 22
 92.450265
  C 0.196300 -0.004046 -0.026501
  C 3.380440 0.237175 0.572485
  C 3.262114 0.716581 1.881700
  H 2.204324 0.806334 2.167724
  C 3.661670 -0.239012 -0.576665
  C 4.983595 -0.464553 -1.152946
  C 5.242105 -0.958813 -2.362558
  C 4.382084 -1.432022 -3.501431
  C 2.860257 -1.393438 -3.379563
  H 2.427634 -1.774332 -4.304123
  H 6.297840 -1.048954 -2.601242
  H -0.109741 0.367419 0.930260
  H 0.300518 -1.057286 -0.178496
  H 0.296678 0.670249 -0.850182
  H 3.678328 1.730226 1.970137
  H 3.701025 0.011783 2.597649
  H 2.873418 -0.525515 -1.257643
  H 5.801299 -0.194057 -0.509950
  H 4.690408 -2.462531 -3.716988
  H 4.678898 -0.844719 -4.379576
  H 2.496726 -0.374997 -3.255880
  H 2.508496 -2.038623 -2.576161
 22
 92.506847
  C 0.117920 -0.032274 -0.035841
  C 3.394756 0.208595 0.589927
  C 3.264808 0.730625 1.874227
  H 2.205498 0.835923 2.136318
  C 3.666131 -0.259070 -0.561022
  C 4.985178 -0.482571 -1.152764
  C 5.231213 -0.964165 -2.368620
  C 4.361614 -1.419163 -3.501692
  C 2.842081 -1.371772 -3.361653
  H 2.397252 -1.739690 -4.284815
  H 6.283619 -1.057918 -2.617480
  H -0.184471 0.354332 0.914378
  H 0.218857 -1.087105 -0.171015
  H 0.225345 0.629775 -0.867425
  H 3.681873 1.738819 1.933494
  H 3.689682 0.049849 2.617361
  H 2.868010 -0.530730 -1.239921
  H 5.808390 -0.221436 -0.511308
  H 4.662084 -2.448125 -3.731241
  H 4.653169 -0.824831 -4.375409
  H 2.486268 -0.352691 -3.223023
  H 2.495457 -2.023136 -2.561783
 22
 92.124153
  C 0.120898 -0.066420 -0.189573
  C 3.529738 0.279467 0.613037
  C 3.280959 0.717900 1.907508
  H 2.195234 0.738744 2.069599
  C 3.789068 -0.207865 -0.530588
  C 5.067234 -0.459804 -1.190957
  C 5.239280 -0.965678 -2.411214
  C 4.296040 -1.424004 -3.472874
  C 2.791949 -1.347247 -3.232950
  H 2.280605 -1.724216 -4.116837
  H 6.271666 -1.080369 -2.720917
  H -0.241330 0.290439 0.749493
  H 0.257639 -1.115182 -0.340604
  H 0.239896 0.614366 -1.004254
  H 3.624135 1.743520 2.061099
  H 3.680135 0.022392 2.649438
  H 2.945494 -0.471828 -1.169597
  H 5.932344 -0.201084 -0.601422
  H 4.564571 -2.460772 -3.701234
  H 4.539657 -0.851078 -4.373762
  H 2.461725 -0.319507 -3.092684
  H 2.487797 -1.978536 -2.400014
