14

C      2.411484   -0.559001    1.173188
H      3.631025    0.288748    1.127461
C      0.317584    1.050729   -0.163607
C     -0.980448    0.342634    0.027422
C     -2.075040    1.229463   -0.609366
H     -3.503633    0.960745   -0.129109
H     -0.845867   -1.072574   -0.549093
H      1.982183   -0.709677    2.151042
H      2.443588   -1.455257    0.573652
H      0.680451    1.097016   -1.179004
H      0.427543    1.985356    0.365960
H     -1.191413    0.265765    1.098651
H     -1.853926    2.268147   -0.334302
H     -2.025629    1.164453   -1.698288
