 20
 0.000000
  C 1.007051 -0.071558 0.047579
  C 2.503360 -0.082390 0.026317
  C 3.219079 -0.595159 -0.980338
  C 4.656778 -0.606115 -1.001843
  C 5.376873 -1.121506 -2.013640
  C 6.816963 -1.130416 -2.031130
  C 7.534819 -1.642220 -3.035895
  C 9.024773 -1.661785 -3.074297
  H 0.644689 0.394618 0.962755
  H 0.611628 -1.086345 0.008820
  H 0.611630 0.493742 -0.796060
  H 3.003606 0.353030 0.881120
  H 2.707825 -1.028545 -1.831134
  H 5.161565 -0.171342 -0.148316
  H 4.869831 -1.556968 -2.868526
  H 7.326611 -0.695427 -1.177173
  H 7.035818 -2.078386 -3.892147
  H 9.458896 -1.208713 -2.184846
  H 9.383801 -1.115935 -3.948132
  H 9.383803 -2.689559 -3.146562
 20
 0.479504
  C 1.007434 0.006903 0.013078
  C 2.503005 -0.032815 -0.002187
  C 3.221926 -0.650574 -0.943430
  C 4.659903 -0.681373 -0.967429
  C 5.382707 -1.293132 -1.920917
  C 6.820045 -1.294767 -1.963346
  C 7.535931 -1.594314 -3.049289
  C 9.019371 -1.570097 -3.116224
  H 0.637966 0.592987 0.853093
  H 0.597519 -1.001488 0.089991
  H 0.625788 0.444134 -0.909300
  H 3.012244 0.476457 0.803856
  H 2.714374 -1.159887 -1.752250
  H 5.169515 -0.171943 -0.158301
  H 4.874864 -1.801612 -2.733801
  H 7.325946 -1.002994 -1.051904
  H 7.029419 -1.866840 -3.965935
  H 9.448796 -1.268139 -2.165926
  H 9.350389 -0.877732 -3.886829
  H 9.401417 -2.554418 -3.377707
 20
 2.732047
  C 1.021500 0.049550 -0.014597
  C 2.515433 0.033681 -0.059700
  C 3.225368 -0.686110 -0.931280
  C 4.663038 -0.708493 -0.975172
  C 5.372539 -1.425126 -1.858128
  C 6.820051 -1.435786 -1.919523
  C 7.520448 -1.512179 -3.049119
  C 9.008249 -1.503473 -3.124868
  H 0.659917 0.708153 0.770558
  H 0.633280 -0.951250 0.169537
  H 0.611934 0.389710 -0.965399
  H 3.031012 0.638782 0.673135
  H 2.711085 -1.302312 -1.658450
  H 5.179519 -0.090554 -0.251642
  H 4.857027 -2.045380 -2.582427
  H 7.335718 -1.387117 -0.966634
  H 7.001339 -1.573623 -3.997160
  H 9.451713 -1.408351 -2.136345
  H 9.349907 -0.674318 -3.745132
  H 9.367744 -2.421077 -3.589523
 20
 4.909227
  C 1.042843 0.083141 -0.010897
  C 2.534231 0.085905 -0.117596
  C 3.223216 -0.716454 -0.930421
  C 4.661234 -0.739882 -1.010727
  C 5.347728 -1.527462 -1.846181
  C 6.807566 -1.564043 -1.912802
  C 7.509926 -1.435834 -3.034318
  C 8.999414 -1.454210 -3.108741
  H 0.698047 0.836250 0.692760
  H 0.684132 -0.890619 0.321810
  H 0.589537 0.281783 -0.979527
  H 3.067342 0.784837 0.516388
  H 2.694393 -1.410275 -1.571923
  H 5.190443 -0.046049 -0.371377
  H 4.812273 -2.204042 -2.499981
  H 7.329098 -1.721387 -0.974643
  H 6.998006 -1.294619 -3.973924
  H 9.441214 -1.584953 -2.119452
  H 9.364788 -0.525337 -3.535775
  H 9.338026 -2.267123 -3.754569
 20
 6.343649
  C 1.083347 0.156949 -0.059152
  C 2.576563 0.102127 -0.144924
  C 3.243610 -0.776051 -0.894432
  C 4.679046 -0.812034 -1.011284
  C 5.340167 -1.682835 -1.777425
  C 6.801887 -1.706851 -1.900015
  C 7.464080 -1.351146 -2.990979
  C 8.950085 -1.380046 -3.124163
  H 0.755518 0.985559 0.569583
  H 0.689213 -0.771543 0.361129
  H 0.644294 0.278550 -1.047630
  H 3.126976 0.829905 0.437805
  H 2.696567 -1.509420 -1.475412
  H 5.226790 -0.079418 -0.431562
  H 4.794497 -2.415015 -2.352588
  H 7.345312 -2.032299 -1.025072
  H 6.926336 -0.995912 -3.860590
  H 9.421117 -1.729109 -2.207989
  H 9.327180 -0.384812 -3.355522
  H 9.242094 -2.041001 -3.939219
 20
 6.846194
  C 1.114976 0.179144 -0.048198
  C 2.600520 0.148399 -0.222437
  C 3.250978 -0.801134 -0.895050
  C 4.683631 -0.832062 -1.060334
  C 5.332979 -1.773557 -1.746434
  C 6.793210 -1.809687 -1.908365
  C 7.441720 -1.284275 -2.934538
  C 8.922779 -1.326862 -3.116183
  H 0.802441 1.066127 0.492904
  H 0.776609 -0.697515 0.503552
  H 0.613934 0.168602 -1.016144
  H 3.161470 0.951752 0.237130
  H 2.695472 -1.609971 -1.356609
  H 5.240140 -0.026053 -0.598169
  H 4.778463 -2.583362 -2.205557
  H 7.343231 -2.324130 -1.127633
  H 6.889417 -0.772650 -3.713013
  H 9.403195 -1.845169 -2.290685
  H 9.323510 -0.315015 -3.177468
  H 9.175305 -1.837415 -4.046854
 20
 6.065917
  C 1.180225 0.260806 -0.052365
  C 2.658499 0.178498 -0.260912
  C 3.264398 -0.818712 -0.905284
  C 4.690350 -0.897563 -1.106902
  C 5.297757 -1.891954 -1.756681
  C 6.745777 -1.967462 -1.975557
  C 7.409458 -1.215054 -2.838916
  C 8.880123 -1.286072 -3.072884
  H 0.904356 1.189576 0.442955
  H 0.832495 -0.574612 0.561733
  H 0.655104 0.205436 -1.003559
  H 3.253290 0.985314 0.146469
  H 2.677075 -1.634575 -1.303935
  H 5.281660 -0.081239 -0.711254
  H 4.712422 -2.712440 -2.158304
  H 7.273370 -2.705451 -1.379176
  H 6.873523 -0.482833 -3.432784
  H 9.342700 -2.036118 -2.432799
  H 9.340991 -0.317742 -2.871582
  H 9.084566 -1.535564 -4.112657
 20
 4.407654
  C 1.226036 0.278182 -0.018717
  C 2.686474 0.215709 -0.332434
  C 3.286142 -0.842409 -0.879588
  C 4.694713 -0.905841 -1.171685
  C 5.296994 -1.964063 -1.724358
  C 6.722454 -2.043542 -2.015201
  C 7.384546 -1.172106 -2.766527
  C 8.839099 -1.253291 -3.082470
  H 0.951862 1.252226 0.377730
  H 0.959740 -0.481743 0.717006
  H 0.631118 0.088849 -0.912344
  H 3.275494 1.089265 -0.085736
  H 2.702230 -1.719443 -1.131779
  H 5.282605 -0.031566 -0.919658
  H 4.715622 -2.848045 -1.969716
  H 7.236774 -2.898574 -1.589725
  H 6.853277 -0.334741 -3.202688
  H 9.295155 -2.115464 -2.601202
  H 9.348678 -0.349920 -2.744939
  H 8.988571 -1.329270 -4.159468
 20
 3.505334
  C 1.242142 0.257310 0.052947
  C 2.682275 0.223984 -0.345181
  C 3.284639 -0.844775 -0.871925
  C 4.668910 -0.879319 -1.256437
  C 5.278661 -1.963076 -1.765931
  C 6.692478 -2.054345 -2.082660
  C 7.402235 -1.144266 -2.744911
  C 8.849940 -1.273587 -3.084460
  H 0.956066 1.247228 0.403625
  H 1.047513 -0.464477 0.848031
  H 0.603995 0.000318 -0.788758
  H 3.255004 1.127483 -0.176341
  H 2.722270 -1.757890 -1.021772
  H 5.236956 0.031291 -1.113114
  H 4.748543 -2.906313 -1.830690
  H 7.120307 -3.022094 -1.839057
  H 6.922489 -0.213672 -3.041452
  H 9.251223 -2.211859 -2.707236
  H 9.408207 -0.446091 -2.645350
  H 9.004347 -1.235914 -4.163462
 20
 3.370660
  C 1.250057 0.244965 0.084198
  C 2.678539 0.222503 -0.365356
  C 3.285068 -0.853975 -0.858602
  C 4.660148 -0.877205 -1.290064
  C 5.267597 -1.963178 -1.789112
  C 6.661534 -2.075307 -2.175458
  C 7.442215 -1.100028 -2.632762
  C 8.849408 -1.284670 -3.074672
  H 0.920784 1.265408 0.298668
  H 1.119772 -0.360002 0.983455
  H 0.602166 -0.165264 -0.683160
  H 3.230257 1.146052 -0.277638
  H 2.730620 -1.790986 -0.949994
  H 5.205876 0.042452 -1.204307
  H 4.746608 -2.914887 -1.812853
  H 7.005447 -3.098422 -2.197036
  H 7.068879 -0.084297 -2.664742
  H 9.158310 -2.311706 -2.971435
  H 9.521290 -0.645119 -2.494653
  H 8.949927 -1.001872 -4.103032
