 23
 0.000000
  H 1.554968 0.152944 0.433634
  C 2.636547 0.138536 0.398187
  C 3.350367 0.616007 1.585210
  C 2.436256 1.072281 2.718670
  C 3.243065 1.555675 3.920496
  C 3.220670 -0.326334 -0.758346
  C 4.596303 -0.411996 -0.971707
  C 5.200534 -0.880341 -2.142017
  C 4.485022 -1.359173 -3.339019
  H 3.406860 -1.323887 -3.251793
  O 6.505244 -0.919383 -2.240120
  H 4.015043 1.442614 1.303437
  H 4.014876 -0.175552 1.954470
  H 1.792798 0.247858 3.031252
  H 1.793226 1.883770 2.373005
  H 3.874924 0.761069 4.310376
  H 2.578586 1.877000 4.718575
  H 3.875333 2.398638 3.651409
  H 2.560794 -0.644592 -1.551461
  H 5.261607 -0.094564 -0.178786
  H 4.807404 -2.377900 -3.557229
  H 4.807978 -0.772496 -4.199793
  H 6.977077 -0.600648 -1.444129
 23
 2.290657
  H 1.542363 0.270680 0.410066
  C 2.621418 0.207988 0.379570
  C 3.337896 0.618237 1.590660
  C 2.429178 1.059652 2.733684
  C 3.239158 1.493008 3.950383
  C 3.197751 -0.243566 -0.784449
  C 4.577089 -0.383968 -0.976889
  C 5.197612 -0.894748 -2.121404
  C 4.500473 -1.467244 -3.287557
  H 3.425520 -1.479064 -3.183005
  O 6.502250 -0.993468 -2.174340
  H 4.030922 1.432498 1.347455
  H 3.978308 -0.203338 1.934625
  H 1.768709 0.237715 3.017073
  H 1.801709 1.889707 2.406552
  H 3.848546 0.673826 4.323483
  H 2.579126 1.810767 4.751465
  H 3.893632 2.326024 3.705296
  H 2.533727 -0.501040 -1.594975
  H 5.234708 -0.137662 -0.159051
  H 4.864093 -2.479086 -3.466956
  H 4.780614 -0.894959 -4.173820
  H 7.016138 -0.335931 -1.663576
 23
 7.293734
  H 1.547068 0.304841 0.383728
  C 2.625527 0.229743 0.362649
  C 3.334862 0.623132 1.583590
  C 2.423130 1.080036 2.717643
  C 3.226796 1.484429 3.948567
  C 3.206737 -0.221386 -0.801259
  C 4.583437 -0.386146 -0.981216
  C 5.202179 -0.898757 -2.118631
  C 4.509613 -1.476039 -3.281486
  H 3.432132 -1.493042 -3.179636
  O 6.521174 -1.015003 -2.141086
  H 4.052176 1.420508 1.352127
  H 3.955107 -0.213040 1.931463
  H 1.737474 0.274408 2.986117
  H 1.821477 1.928789 2.387688
  H 3.813196 0.648092 4.322382
  H 2.562516 1.810337 4.745149
  H 3.903120 2.304835 3.719562
  H 2.547638 -0.454096 -1.623967
  H 5.246184 -0.161481 -0.156876
  H 4.879931 -2.487982 -3.455540
  H 4.792144 -0.911151 -4.171521
  H 7.047749 -0.210394 -2.010073
 23
 11.243219
  H 1.538815 0.228019 0.390542
  C 2.619065 0.175774 0.362581
  C 3.328872 0.623281 1.561575
  C 2.420374 1.105399 2.686902
  C 3.227391 1.563160 3.896407
  C 3.201386 -0.298418 -0.793021
  C 4.580332 -0.442595 -0.978026
  C 5.207915 -0.905398 -2.129981
  C 4.531649 -1.333923 -3.361386
  H 3.452261 -1.279062 -3.301446
  O 6.532375 -1.067378 -2.089681
  H 4.034369 1.421288 1.296470
  H 3.966327 -0.190578 1.931982
  H 1.748511 0.300029 2.988469
  H 1.803551 1.933423 2.333509
  H 3.828926 0.749091 4.293587
  H 2.564721 1.906145 4.686677
  H 3.889464 2.384801 3.634314
  H 2.541360 -0.576189 -1.600333
  H 5.248080 -0.204649 -0.161906
  H 4.838010 -2.355049 -3.597706
  H 4.883805 -0.729087 -4.198428
  H 7.103692 -0.311460 -2.283600
 23
 9.511087
  H 1.524905 0.086782 0.492071
  C 2.605856 0.062417 0.456915
  C 3.312980 0.584057 1.628267
  C 2.399554 1.104125 2.732991
  C 3.202774 1.634427 3.915531
  C 3.193005 -0.445787 -0.680411
  C 4.574345 -0.565680 -0.867341
  C 5.211439 -0.973034 -2.036921
  C 4.552943 -1.204521 -3.333208
  H 3.480521 -1.062086 -3.294593
  O 6.518042 -1.185243 -1.949795
  H 4.002159 1.380283 1.320404
  H 3.966224 -0.198882 2.035163
  H 1.743216 0.302222 3.076398
  H 1.766790 1.903211 2.342193
  H 3.820554 0.851106 4.348677
  H 2.537005 2.003423 4.691494
  H 3.849248 2.454165 3.610736
  H 2.535370 -0.783491 -1.468003
  H 5.244268 -0.313620 -0.055474
  H 4.779621 -2.219055 -3.667401
  H 4.973259 -0.544397 -4.093188
  H 7.137943 -0.599617 -2.412850
 23
 4.464361
  H 1.506549 -0.053727 0.541172
  C 2.587215 -0.052003 0.497529
  C 3.291525 0.530367 1.643725
  C 2.372309 1.081815 2.728856
  C 3.170671 1.669539 3.887278
  C 3.180867 -0.578938 -0.626386
  C 4.562591 -0.681957 -0.811538
  C 5.208801 -1.023205 -2.000157
  C 4.565339 -1.090402 -3.324598
  H 3.501617 -0.893397 -3.279515
  O 6.493690 -1.275396 -1.892740
  H 3.968730 1.322386 1.302393
  H 3.953966 -0.228456 2.080335
  H 1.727495 0.285497 3.105474
  H 1.728703 1.856320 2.307511
  H 3.800136 0.912224 4.349039
  H 2.501819 2.060109 4.649971
  H 3.805409 2.484894 3.547950
  H 2.529563 -0.954565 -1.402357
  H 5.231224 -0.480857 0.015524
  H 4.738318 -2.078999 -3.753894
  H 5.023093 -0.377074 -4.010612
  H 7.092683 -0.936543 -2.581928
 23
 5.713576
  H 1.518693 -0.250351 0.624609
  C 2.596308 -0.214325 0.542669
  C 3.319791 0.504089 1.598097
  C 2.417328 1.162119 2.636881
  C 3.232129 1.886831 3.702462
  C 3.179291 -0.806576 -0.547437
  C 4.562220 -0.864801 -0.772434
  C 5.213116 -0.955585 -2.000182
  C 4.597021 -0.672972 -3.307442
  H 3.539634 -0.454953 -3.210633
  O 6.481589 -1.282993 -1.913586
  H 3.980108 1.259258 1.157989
  H 3.998143 -0.201460 2.095897
  H 1.789303 0.407615 3.114108
  H 1.756983 1.879216 2.145040
  H 3.881862 1.194082 4.232527
  H 2.574534 2.354081 4.431130
  H 3.848367 2.664884 3.258013
  H 2.532488 -1.276681 -1.276494
  H 5.278606 -0.947985 0.035789
  H 4.733606 -1.535324 -3.962143
  H 5.083954 0.170598 -3.796697
  H 7.070212 -0.921962 -2.603086
 23
 15.466978
  H 1.442937 -0.393386 0.725626
  C 2.516672 -0.366830 0.602356
  C 3.285857 0.415176 1.579802
  C 2.429522 1.152271 2.604029
  C 3.292699 1.941196 3.582923
  C 3.062542 -1.025206 -0.461749
  C 4.442983 -1.081149 -0.734926
  C 5.133165 -1.020112 -1.937710
  C 4.642719 -0.482686 -3.215804
  H 3.598422 -0.197361 -3.142035
  O 6.369136 -1.473551 -1.818592
  H 3.931728 1.133515 1.063927
  H 3.977600 -0.263426 2.095662
  H 1.821553 0.436204 3.159650
  H 1.755037 1.839687 2.090061
  H 3.956949 1.280409 4.135123
  H 2.668578 2.466159 4.301771
  H 3.897080 2.679355 3.061029
  H 2.405201 -1.572746 -1.126357
  H 5.211780 -1.386030 -0.026784
  H 4.759207 -1.246442 -3.986680
  H 5.224617 0.380303 -3.538694
  H 7.081795 -0.942042 -2.215966
 23
 30.874067
  H 1.383977 -0.440262 0.826256
  C 2.450143 -0.425250 0.649407
  C 3.273206 0.384884 1.559845
  C 2.464675 1.186867 2.573849
  C 3.368263 1.996837 3.496988
  C 2.938282 -1.123822 -0.414237
  C 4.297926 -1.155131 -0.784836
  C 5.045907 -1.018149 -1.938656
  C 4.737649 -0.344690 -3.206551
  H 3.708607 0.002461 -3.215360
  O 6.238475 -1.597183 -1.742015
  H 3.920166 1.057619 0.988871
  H 3.950394 -0.292000 2.095948
  H 1.849700 0.512770 3.172593
  H 1.790440 1.866912 2.048986
  H 4.035125 1.345295 4.056624
  H 2.773796 2.561557 4.210974
  H 3.971154 2.701876 2.930180
  H 2.257579 -1.742110 -0.989914
  H 5.149386 -1.605650 -0.217284
  H 4.887722 -1.051501 -4.024168
  H 5.399446 0.502879 -3.384140
  H 7.030195 -1.057440 -1.913089
 23
 55.597993
  H 1.306917 -0.420583 0.913437
  C 2.358965 -0.404513 0.667057
  C 3.241456 0.395950 1.525940
  C 2.503933 1.192419 2.597667
  C 3.471141 2.005477 3.451480
  C 2.778819 -1.107108 -0.432182
  C 4.097607 -1.133422 -0.890462
  C 4.935887 -1.008200 -1.938440
  C 4.865977 -0.329523 -3.240902
  H 3.876767 0.091184 -3.395205
  O 6.097244 -1.671464 -1.570437
  H 3.834253 1.074981 0.904315
  H 3.964719 -0.269130 2.012837
  H 1.942175 0.512553 3.241051
  H 1.787021 1.867927 2.126117
  H 4.180255 1.356019 3.959461
  H 2.929876 2.568100 4.207962
  H 4.027169 2.712722 2.840591
  H 2.066929 -1.747445 -0.943214
  H 5.107597 -1.700488 -0.369348
  H 5.073046 -1.054839 -4.028113
  H 5.604170 0.467789 -3.315694
  H 6.916889 -1.146512 -1.580160
 23
 64.815071
  H 1.277710 -0.422447 0.952569
  C 2.318188 -0.395838 0.666039
  C 3.231707 0.405802 1.503224
  C 2.524144 1.189236 2.605217
  C 3.514877 2.007859 3.426337
  C 2.702611 -1.082640 -0.453035
  C 3.984336 -1.102552 -0.964685
  C 4.862175 -0.994381 -1.935178
  C 4.923546 -0.318004 -3.243273
  H 3.965534 0.137180 -3.473156
  O 6.019405 -1.721760 -1.467702
  H 3.791577 1.095367 0.861891
  H 3.980568 -0.248655 1.961285
  H 1.995028 0.499389 3.265824
  H 1.783132 1.858811 2.163703
  H 4.249043 1.362514 3.903357
  H 2.996962 2.561565 4.205928
  H 4.040020 2.723593 2.797926
  H 1.978319 -1.728841 -0.938965
  H 5.203247 -1.791568 -0.459330
  H 5.164669 -1.048664 -4.014729
  H 5.691716 0.453345 -3.253066
  H 6.851962 -1.207682 -1.416406
 23
 53.339132
  H 1.295357 -0.456939 1.003677
  C 2.322267 -0.404751 0.675858
  C 3.251741 0.427028 1.475857
  C 2.561440 1.194954 2.599784
  C 3.555630 2.042649 3.385795
  C 2.681341 -1.084583 -0.463557
  C 3.922583 -1.093631 -1.017453
  C 4.837888 -0.985149 -1.927564
  C 4.988723 -0.261308 -3.203300
  H 4.058306 0.236045 -3.456605
  O 6.018727 -1.788646 -1.465429
  H 3.768312 1.131446 0.814292
  H 4.032172 -0.206000 1.911282
  H 2.075346 0.491327 3.279135
  H 1.786341 1.841509 2.182531
  H 4.323228 1.418389 3.838039
  H 3.049095 2.583220 4.181790
  H 4.038723 2.771291 2.738615
  H 1.946551 -1.733665 -0.927415
  H 5.477761 -1.956000 -0.610076
  H 5.238588 -0.969504 -3.991976
  H 5.780609 0.483408 -3.146182
  H 6.857441 -1.277215 -1.385411
 23
 43.812263
  H 1.242220 -0.518496 1.072375
  C 2.256494 -0.445207 0.713102
  C 3.192978 0.416068 1.474330
  C 2.515566 1.181914 2.608241
  C 3.507258 2.069813 3.351533
  C 2.596084 -1.120575 -0.438399
  C 3.810868 -1.108101 -1.030575
  C 4.777808 -1.000970 -1.876917
  C 4.970666 -0.194434 -3.104841
  H 4.053795 0.332464 -3.346827
  O 5.979891 -1.837608 -1.540263
  H 3.673496 1.124875 0.791226
  H 3.997242 -0.196016 1.896845
  H 2.065933 0.476838 3.310728
  H 1.712819 1.801601 2.202236
  H 4.305674 1.474864 3.789347
  H 3.009161 2.608341 4.154235
  H 3.949414 2.800978 2.678450
  H 1.849872 -1.760377 -0.895979
  H 5.664512 -2.173386 -0.670853
  H 5.226376 -0.852731 -3.932973
  H 5.767688 0.535715 -2.978950
  H 6.809927 -1.308690 -1.479803
 23
 43.878157
  H 1.204665 -0.291655 0.889096
  C 2.250010 -0.314268 0.623223
  C 3.188807 0.444563 1.488275
  C 2.487128 1.185439 2.624099
  C 3.480669 1.957307 3.485300
  C 2.630243 -1.014534 -0.491309
  C 3.904553 -1.127424 -0.955841
  C 4.843141 -1.058583 -1.840907
  C 4.879560 -0.396389 -3.175794
  H 3.901806 0.007296 -3.415512
  O 6.157734 -1.663411 -1.527416
  H 3.743108 1.163953 0.876112
  H 3.927853 -0.240400 1.915685
  H 1.948033 0.470313 3.249550
  H 1.753668 1.880724 2.209569
  H 4.206684 1.283269 3.934510
  H 2.964374 2.480217 4.286847
  H 4.014726 2.694731 2.890162
  H 1.875519 -1.596519 -1.011688
  H 6.150320 -1.909036 -0.575034
  H 5.145389 -1.135395 -3.929459
  H 5.602534 0.416232 -3.202395
  H 6.890108 -1.030422 -1.716426
