13

H 1.401675306041163 0.13545316411567102 0.38846004002205314
C 2.471599 0.140321 0.400275
H 3.025201175597317 0.4817598055035812 1.2498891319859298
C 3.094519 -0.322246 -0.751479
C 4.470156 -0.413577 -0.979476
C 5.130316 -0.867893 -2.111975
C 4.619381 -1.389077 -3.411201
H 3.5707685060806353 -1.4681211408106387 -3.608846797829651
H 6.20031104457509 -0.8690311131335491 -2.1150261118048337
H 2.434694 -0.63959 -1.541385
H 5.104736 -0.086787 -0.165738
H 5.069941 -2.379791 -3.54125
H 5.070324 -0.763208 -4.189928
