19
 0
 C -1.49396520 1.91065960 -1.23267201
 C -1.80684597 0.42253643 -1.13440382
 C -1.07696442 -0.18989772 0.05989299
 C -3.28920655 0.05207900 -1.06240986
 C -4.35505537 1.11116693 -0.94285707
 O -3.62725051 -1.13711135 -1.07999070
 H -0.41670129 2.07195704 -1.34962140
 H -1.81382385 2.45013755 -0.33456269
 H -1.98875833 2.36135581 -2.09934531
 H -1.43035520 -0.04726639 -2.05256332
 H -1.44689113 0.22425770 1.00422900
 H 0.00000000 0.00000000 0.00000000
 H -1.22117395 -1.27519535 0.09712011
 H -3.96690564 2.12633446 -1.00144768
 H -4.86454936 0.99451188 0.01738608
 H -5.07113099 0.97980086 -1.75932439
 O 2.30000000 0.00000000 0.00000000
 H 2.98474093 0.23913281 0.64258244
 H 2.78881206 -0.44606170 -0.70784698
