 19
 0.000000
  C -1.498884 1.930384 -1.251701
  C -1.775475 0.462991 -1.140186
  C -1.123103 -0.182761 0.057067
  C -3.287038 -0.000224 -1.064210
  C -4.276701 1.098461 -0.918167
  O -3.544988 -1.157902 -1.098419
  H -0.420630 2.054451 -1.379630
  H -1.756207 2.477419 -0.347374
  H -1.972115 2.377758 -2.120664
  H -1.462297 -0.032563 -2.067478
  H -1.456506 0.243038 1.003050
  H -0.046136 0.011730 -0.002698
  H -1.290830 -1.256429 0.078582
  H -3.859016 2.092993 -0.961387
  H -4.778616 0.938349 0.038966
  H -5.023334 0.959906 -1.702874
  O 2.217700 0.015514 -0.005661
  H 2.869099 0.251047 0.658530
  H 2.689053 -0.435763 -0.711580
 19
 -1.141636
  C -1.451748 1.918049 -1.292393
  C -1.716122 0.444726 -1.158019
  C -1.094950 -0.177349 0.059268
  C -3.241357 -0.009276 -1.085008
  C -4.215924 1.083594 -0.866308
  O -3.504268 -1.163228 -1.179790
  H -0.375660 2.041615 -1.454218
  H -1.687968 2.474946 -0.385183
  H -1.949453 2.353748 -2.158275
  H -1.414437 -0.075959 -2.077078
  H -1.408700 0.300012 0.987698
  H -0.009747 -0.000687 -0.012219
  H -1.268382 -1.249841 0.115821
  H -3.792877 2.075014 -0.859173
  H -4.708066 0.875439 0.086585
  H -4.977018 0.996051 -1.644066
  O 1.970448 0.076878 -0.018532
  H 2.580763 0.323208 0.678863
  H 2.460722 -0.437842 -0.668421
 19
 -2.611084
  C -1.391222 1.931597 -1.187060
  C -1.659916 0.452473 -1.171971
  C -1.089229 -0.251014 0.020820
  C -3.189370 0.017500 -1.170067
  C -4.156024 1.063538 -0.764401
  O -3.466235 -1.101987 -1.464629
  H -0.319821 2.060912 -1.337372
  H -1.634920 2.413701 -0.244666
  H -1.890076 2.431379 -2.010641
  H -1.320266 -0.000283 -2.110122
  H -1.401266 0.192799 0.962926
  H 0.017588 -0.100821 -0.024132
  H -1.273261 -1.318737 0.018024
  H -3.718890 2.032410 -0.572600
  H -4.665036 0.694043 0.128442
  H -4.908534 1.134636 -1.552288
  O 1.747050 0.216988 -0.210339
  H 2.294506 0.365925 0.568441
  H 2.219066 -0.386193 -0.797775
 19
 -3.772907
  C -1.373926 1.907437 -1.383201
  C -1.637803 0.429865 -1.277010
  C -1.128357 -0.204678 -0.015993
  C -3.178754 0.051199 -1.268427
  C -4.060087 0.995684 -0.552216
  O -3.512005 -0.959714 -1.803034
  H -0.314959 2.027726 -1.621138
  H -1.558885 2.436333 -0.459025
  H -1.935921 2.364883 -2.191961
  H -1.270108 -0.086240 -2.165902
  H -1.473061 0.298156 0.881510
  H -0.015293 -0.061397 -0.035074
  H -1.311293 -1.269266 0.035924
  H -3.546787 1.848460 -0.128378
  H -4.570458 0.431538 0.228708
  H -4.827534 1.329149 -1.253271
  O 1.678874 0.287529 -0.095750
  H 2.053774 0.426067 0.782087
  H 2.176622 -0.416634 -0.528804
 19
 -2.192027
  C -1.327247 1.886601 -1.423011
  C -1.604286 0.399842 -1.321091
  C -1.145066 -0.232372 -0.055316
  C -3.146713 0.067145 -1.282071
  C -4.002227 0.994919 -0.506542
  O -3.519986 -0.933113 -1.821783
  H -0.280517 2.015151 -1.703263
  H -1.492218 2.406008 -0.483131
  H -1.931367 2.350967 -2.194923
  H -1.239774 -0.131656 -2.195986
  H -1.451692 0.283234 0.851860
  H 0.007917 -0.039607 -0.051398
  H -1.221308 -1.310201 -0.019524
  H -3.472723 1.849980 -0.106691
  H -4.467380 0.422411 0.298824
  H -4.808166 1.331540 -1.155851
  O 1.485122 0.326911 -0.028995
  H 1.793259 0.485328 0.872127
  H 2.025250 -0.358191 -0.445020
 19
 2.191694
  C -1.282013 1.860477 -1.441963
  C -1.595409 0.378544 -1.336406
  C -1.184046 -0.259076 -0.063062
  C -3.129226 0.064565 -1.263441
  C -3.975974 0.994157 -0.469397
  O -3.540714 -0.924666 -1.813744
  H -0.239247 1.974915 -1.723233
  H -1.441885 2.381897 -0.504617
  H -1.885364 2.331818 -2.212601
  H -1.236186 -0.171264 -2.207711
  H -1.470576 0.254472 0.845740
  H 0.116780 -0.006251 -0.022580
  H -1.194494 -1.339551 -0.029076
  H -3.426864 1.817931 -0.032833
  H -4.479609 0.419316 0.308037
  H -4.756067 1.381957 -1.123175
  O 1.356667 0.364835 -0.025584
  H 1.660360 0.570450 0.874038
  H 1.923123 -0.309622 -0.434558
 19
 4.549977
  C -1.271303 1.857769 -1.441987
  C -1.597299 0.375102 -1.330218
  C -1.209429 -0.263595 -0.054601
  C -3.117718 0.058789 -1.245505
  C -3.974922 0.996787 -0.462057
  O -3.538068 -0.943871 -1.780591
  H -0.225056 1.968984 -1.721358
  H -1.433756 2.383677 -0.508184
  H -1.870007 2.325672 -2.214768
  H -1.235983 -0.177364 -2.197502
  H -1.485410 0.253316 0.851860
  H 0.247809 0.021083 0.016865
  H -1.212525 -1.341961 -0.015098
  H -3.429233 1.828250 -0.034233
  H -4.480288 0.435727 0.319550
  H -4.755320 1.375950 -1.125919
  O 1.315533 0.351207 -0.034704
  H 1.643375 0.572508 0.857742
  H 1.876831 -0.330938 -0.449529
 19
 5.942205
  C -1.250642 1.838119 -1.458354
  C -1.613974 0.367384 -1.348466
  C -1.339741 -0.287450 -0.057992
  C -3.121099 0.052868 -1.217825
  C -3.973930 1.006449 -0.437341
  O -3.566595 -0.956284 -1.742177
  H -0.201299 1.927032 -1.724699
  H -1.417635 2.370763 -0.527552
  H -1.831905 2.316408 -2.241671
  H -1.252108 -0.204271 -2.202834
  H -1.576710 0.247752 0.846737
  H 0.399264 0.028250 0.036084
  H -1.325801 -1.363258 -0.010037
  H -3.424065 1.847424 -0.034903
  H -4.471514 0.463489 0.365059
  H -4.759000 1.371724 -1.099419
  O 1.366864 0.366823 -0.014888
  H 1.695108 0.614260 0.874149
  H 1.949684 -0.301501 -0.430702
 19
 6.395348
  C -1.218193 1.843901 -1.486378
  C -1.589167 0.381338 -1.383286
  C -1.456547 -0.299951 -0.088666
  C -3.071019 0.021722 -1.140068
  C -3.930999 1.001170 -0.393589
  O -3.536126 -1.001340 -1.657009
  H -0.168959 1.926371 -1.758288
  H -1.380432 2.375810 -0.553948
  H -1.799384 2.328183 -2.266565
  H -1.238814 -0.200891 -2.234906
  H -1.657017 0.240013 0.820258
  H 0.396533 0.009742 0.064372
  H -1.406288 -1.374556 -0.042329
  H -3.385074 1.861519 -0.027863
  H -4.423488 0.489881 0.433972
  H -4.717750 1.336857 -1.067505
  O 1.331382 0.367841 0.012395
  H 1.655717 0.638836 0.897260
  H 1.934862 -0.289392 -0.392469
 19
 5.167701
  C -1.180677 1.846503 -1.476356
  C -1.581366 0.396430 -1.404762
  C -1.632089 -0.322935 -0.133609
  C -3.054669 0.002403 -1.109061
  C -3.948885 1.001623 -0.412645
  O -3.537133 -1.009104 -1.682805
  H -0.120902 1.911764 -1.706085
  H -1.372723 2.372573 -0.547004
  H -1.720043 2.348503 -2.274807
  H -1.219654 -0.183583 -2.249169
  H -1.798131 0.206947 0.789129
  H 0.521676 -0.011896 0.072691
  H -1.558647 -1.396802 -0.096014
  H -3.418797 1.880150 -0.065926
  H -4.446133 0.513270 0.425482
  H -4.730988 1.308585 -1.106592
  O 1.395314 0.426442 -0.039057
  H 1.747836 0.716281 0.830864
  H 2.028099 -0.182050 -0.479724
 19
 3.884049
  C -1.186033 1.803704 -1.434213
  C -1.615131 0.363344 -1.365869
  C -1.746047 -0.349632 -0.099625
  C -3.101594 -0.015419 -1.043926
  C -3.989689 1.022953 -0.400534
  O -3.607960 -1.009673 -1.644877
  H -0.121297 1.846785 -1.648941
  H -1.380781 2.334814 -0.507690
  H -1.703586 2.315855 -2.242106
  H -1.264643 -0.230217 -2.205303
  H -1.864934 0.192170 0.823886
  H 0.708516 -0.049691 0.136748
  H -1.654002 -1.421153 -0.049096
  H -3.447415 1.900185 -0.070389
  H -4.509311 0.571954 0.444232
  H -4.752240 1.323327 -1.118447
  O 1.550376 0.426196 -0.014809
  H 1.922080 0.738296 0.839520
  H 2.189122 -0.158906 -0.476365
 19
 3.639544
  C -1.195106 1.788966 -1.424650
  C -1.634843 0.352636 -1.354747
  C -1.774612 -0.356947 -0.087318
  C -3.126304 -0.016910 -1.026424
  C -4.008355 1.036374 -0.396132
  O -3.641598 -1.004867 -1.632876
  H -0.129787 1.822383 -1.638369
  H -1.385417 2.322036 -0.498436
  H -1.708084 2.304654 -2.233176
  H -1.289964 -0.244560 -2.194037
  H -1.879717 0.188657 0.835801
  H 0.810102 -0.063615 0.165682
  H -1.680672 -1.428666 -0.033394
  H -3.459274 1.911592 -0.071598
  H -4.535567 0.598386 0.450968
  H -4.764969 1.337093 -1.120057
  O 1.645209 0.420602 0.005342
  H 2.021541 0.737608 0.855644
  H 2.283544 -0.157240 -0.466571
 19
 2.945868
  C -1.257838 1.767531 -1.413270
  C -1.719495 0.339575 -1.357582
  C -1.901077 -0.376082 -0.099761
  C -3.220810 -0.021965 -1.002138
  C -4.091497 1.063503 -0.410783
  O -3.756156 -0.981448 -1.644862
  H -0.191918 1.781948 -1.628354
  H -1.434917 2.291776 -0.478859
  H -1.763521 2.302370 -2.214009
  H -1.391342 -0.256209 -2.203608
  H -1.961025 0.166827 0.829095
  H 1.135072 -0.104807 0.248871
  H -1.785642 -1.445835 -0.048648
  H -3.527339 1.929596 -0.086888
  H -4.646920 0.653439 0.432101
  H -4.823308 1.370532 -1.157072
  O 1.943924 0.414346 0.071550
  H 2.325302 0.742130 0.915223
  H 2.588578 -0.132126 -0.428256
 19
 1.445885
  C -1.203536 1.719577 -1.343554
  C -1.652570 0.294904 -1.305565
  C -1.965622 -0.419604 -0.067203
  C -3.216983 -0.054646 -0.948519
  C -4.066650 1.088084 -0.439261
  O -3.746950 -0.958057 -1.674483
  H -0.145433 1.747470 -1.595417
  H -1.357575 2.222635 -0.394752
  H -1.729259 2.270772 -2.120910
  H -1.363507 -0.306995 -2.158877
  H -1.949112 0.123384 0.866181
  H 1.092444 -0.131585 0.252997
  H -1.794351 -1.484434 -0.009021
  H -3.482499 1.890891 -0.006650
  H -4.751605 0.698687 0.313213
  H -4.671732 1.476074 -1.256713
  O 1.815311 0.467271 -0.019142
  H 2.223571 0.888920 0.768559
  H 2.486127 -0.028248 -0.538130
