 11
 0.000000
  H 1.343750 0.142575 0.404346
  C 2.418174 0.115598 0.338394
  H 2.982001 0.457959 1.191910
  C 3.041785 -0.337029 -0.788605
  C 4.438949 -0.379037 -0.893919
  C 5.124823 -0.830341 -2.018774
  H 4.601440 -1.185703 -2.903769
  O 6.399469 -0.869131 -2.116305
  H 2.451425 -0.674845 -1.630052
  H 5.031965 -0.040363 -0.051190
  H 6.895295 -0.552133 -1.326623
 11
 0.196175
  H 1.334389 0.220236 0.341557
  C 2.408622 0.130933 0.320340
  H 2.947825 0.424552 1.208387
  C 3.058275 -0.336929 -0.784128
  C 4.455748 -0.461334 -0.829524
  C 5.126862 -0.859271 -1.984828
  H 4.568836 -1.238666 -2.838174
  O 6.387402 -0.790139 -2.178248
  H 2.488430 -0.613631 -1.663715
  H 5.023687 -0.199587 0.053650
  H 6.927739 -0.427910 -1.438251
 11
 1.623562
  H 1.349326 0.289800 0.318799
  C 2.415857 0.136066 0.317415
  H 2.950150 0.366508 1.226086
  C 3.060274 -0.332769 -0.787715
  C 4.448732 -0.537983 -0.811873
  C 5.135322 -0.887977 -1.976187
  H 4.590753 -1.290257 -2.828891
  O 6.372907 -0.676261 -2.203493
  H 2.496493 -0.548117 -1.685347
  H 5.005969 -0.359969 0.100691
  H 6.906392 -0.311208 -1.463174
 11
 4.696706
  H 1.363398 0.341542 0.306572
  C 2.418715 0.114079 0.324563
  H 2.943758 0.248561 1.253914
  C 3.062524 -0.327863 -0.786028
  C 4.445690 -0.566868 -0.796506
  C 5.142007 -0.900589 -1.960494
  H 4.599341 -1.329534 -2.798916
  O 6.332842 -0.536579 -2.249371
  H 2.508615 -0.446699 -1.715990
  H 4.993460 -0.469198 0.134372
  H 6.933390 -0.280558 -1.509418
 11
 10.321114
  H 1.393479 0.391602 0.330055
  C 2.431594 0.113223 0.335720
  H 2.979080 0.278720 1.253075
  C 3.049349 -0.352576 -0.787092
  C 4.414368 -0.677815 -0.801742
  C 5.151609 -0.904361 -1.968689
  H 4.666551 -1.366493 -2.831845
  O 6.285605 -0.361294 -2.237032
  H 2.502306 -0.418854 -1.718061
  H 4.940949 -0.650664 0.148947
  H 6.947136 -0.208049 -1.526516
 11
 20.256478
  H 1.424529 0.413287 0.370775
  C 2.454467 0.106571 0.357335
  H 2.998905 0.159737 1.289763
  C 3.038239 -0.341226 -0.790998
  C 4.392155 -0.691120 -0.835280
  C 5.172244 -0.958492 -1.964639
  H 4.759414 -1.434832 -2.854619
  O 6.202836 -0.215578 -2.205779
  H 2.483831 -0.329718 -1.720855
  H 4.906783 -0.748201 0.128317
  H 6.950540 -0.129331 -1.585355
 11
 30.043533
  H 1.427856 0.351685 0.429841
  C 2.479837 0.066652 0.399471
  H 2.993492 0.010383 1.332469
  C 3.060975 -0.270781 -0.793710
  C 4.387918 -0.674933 -0.871069
  C 5.160376 -0.978250 -2.003560
  H 4.741208 -1.350718 -2.922767
  O 6.175540 -0.150610 -2.160226
  H 2.457484 -0.255177 -1.691327
  H 4.940000 -0.704458 0.082815
  H 6.991980 -0.230058 -1.622120
 11
 46.154777
  H 1.513983 0.427007 0.431491
  C 2.527611 0.055733 0.382960
  H 3.094081 0.099533 1.291667
  C 3.080817 -0.316046 -0.803873
  C 4.397000 -0.757780 -0.874282
  C 5.165746 -1.049236 -2.012364
  H 4.834038 -1.416281 -2.984889
  O 5.997616 -0.001895 -1.989676
  H 2.508289 -0.262066 -1.725673
  H 4.900562 -0.874181 0.076766
  H 6.900194 -0.113316 -1.646963
 11
 60.705009
  H 1.609518 0.476651 0.379748
  C 2.622628 0.113358 0.330366
  H 3.162028 0.057526 1.261237
  C 3.159920 -0.268306 -0.832719
  C 4.492484 -0.810895 -0.882708
  C 5.159708 -1.217503 -2.069594
  H 4.904654 -1.588151 -3.040689
  O 5.684644 0.049245 -1.834095
  H 2.612464 -0.193727 -1.759442
  H 4.997639 -0.943995 0.070862
  H 6.619376 0.069351 -1.509853
 11
 57.796214
  H 1.659193 0.504680 0.334534
  C 2.650917 0.089008 0.306084
  H 3.157458 -0.009868 1.253137
  C 3.222175 -0.238227 -0.844798
  C 4.594657 -0.771667 -0.888920
  C 5.188108 -1.316854 -2.068049
  H 4.877655 -1.676121 -3.027993
  O 5.550381 0.016994 -1.816064
  H 2.708321 -0.132028 -1.788272
  H 5.057048 -0.956008 0.078018
  H 6.465944 0.164336 -1.462570
 11
 57.120836
  H 1.628085 0.415621 0.295392
  C 2.633829 0.034727 0.289739
  H 3.067597 -0.188014 1.249878
  C 3.284320 -0.154945 -0.847829
  C 4.666628 -0.672220 -0.873968
  C 5.186775 -1.397582 -1.997626
  H 4.794311 -1.793964 -2.914262
  O 5.554195 -0.037642 -1.893946
  H 2.832595 0.046837 -1.806745
  H 5.127963 -0.831659 0.095789
  H 6.472595 0.165993 -1.579556
