 28
 0.000000
  C 0.964694 0.145268 0.412823
  C 2.437782 0.139984 0.399196
  C 3.233352 0.605078 1.556462
  C 2.467902 1.096222 2.779307
  H 3.158519 1.407096 3.552983
  C 3.047697 -0.326550 -0.762283
  C 4.430569 -0.412750 -0.977357
  C 5.092755 -0.860853 -2.094403
  C 4.611164 -1.379835 -3.388195
  C 3.126440 -1.506175 -3.703712
  C 2.927024 -2.069880 -5.109106
  H 6.173469 -0.852348 -2.073516
  H 0.540001 0.516947 1.337824
  H 0.589791 -0.865246 0.243448
  H 0.589452 0.757453 -0.408654
  H 3.892024 1.411795 1.215274
  H 3.892307 -0.213240 1.868179
  H 1.835335 0.307096 3.181362
  H 1.835146 1.944064 2.523803
  H 2.387970 -0.644231 -1.553338
  H 5.057664 -0.083873 -0.158146
  H 5.076839 -2.366544 -3.512225
  H 5.077149 -0.752582 -4.159753
  H 2.645389 -0.528066 -3.657207
  H 2.645127 -2.180877 -2.994214
  H 3.373600 -1.420114 -5.858306
  H 1.866337 -2.158568 -5.330639
  H 3.373395 -3.057375 -5.201564
 28
 -0.176120
  C 0.969893 -0.152940 0.548469
  C 2.432536 -0.025808 0.455382
  C 3.218900 0.704012 1.472477
  C 2.452273 1.334721 2.626150
  H 3.150978 1.836947 3.290083
  C 3.045854 -0.603211 -0.651689
  C 4.427627 -0.648127 -0.884311
  C 5.075654 -1.109050 -2.003733
  C 4.600551 -1.507451 -3.333096
  C 3.122899 -1.466378 -3.696877
  C 2.929560 -1.779863 -5.178391
  H 6.155342 -1.161521 -1.924469
  H 0.555823 0.290923 1.444774
  H 0.685977 -1.205530 0.501728
  H 0.503646 0.310000 -0.323387
  H 3.796275 1.484440 0.964103
  H 3.966230 0.014804 1.882758
  H 1.922266 0.585561 3.209292
  H 1.739971 2.076044 2.272596
  H 2.398729 -1.093011 -1.360839
  H 5.070453 -0.304918 -0.084528
  H 4.992427 -2.516453 -3.522819
  H 5.156800 -0.885997 -4.049992
  H 2.715426 -0.474991 -3.492555
  H 2.570860 -2.207281 -3.116985
  H 3.441566 -1.050579 -5.802235
  H 1.873665 -1.758865 -5.435864
  H 3.314860 -2.767550 -5.421611
 28
 0.940892
  C 1.008601 -0.435575 0.674243
  C 2.442351 -0.176889 0.466432
  C 3.183660 0.830009 1.256532
  C 2.409266 1.584189 2.327431
  H 3.074907 2.282666 2.828092
  C 3.081363 -0.877934 -0.548179
  C 4.466470 -0.932496 -0.776767
  C 5.096311 -1.367673 -1.912505
  C 4.597452 -1.565144 -3.278537
  C 3.133368 -1.318670 -3.615988
  C 2.913300 -1.382143 -5.124920
  H 6.164397 -1.531565 -1.829815
  H 0.588798 0.124995 1.499916
  H 0.844493 -1.501635 0.838495
  H 0.454105 -0.193633 -0.234418
  H 3.625588 1.553172 0.562114
  H 4.039279 0.327619 1.723290
  H 2.010693 0.908697 3.080441
  H 1.591463 2.157424 1.898015
  H 2.484835 -1.542257 -1.154111
  H 5.113615 -0.649018 0.044450
  H 4.878715 -2.580316 -3.589739
  H 5.221162 -0.924572 -3.918915
  H 2.829433 -0.334725 -3.253606
  H 2.501932 -2.073997 -3.148196
  H 3.498125 -0.621876 -5.637978
  H 1.865689 -1.216909 -5.363158
  H 3.198095 -2.355050 -5.519197
 28
 3.268284
  C 1.033888 -0.600889 0.737033
  C 2.449345 -0.318906 0.425831
  C 3.163816 0.860926 0.973724
  C 2.403932 1.747384 1.950397
  H 3.047891 2.560424 2.275386
  C 3.095342 -1.145276 -0.474769
  C 4.492624 -1.222657 -0.678624
  C 5.143787 -1.515352 -1.840674
  C 4.622869 -1.499496 -3.215207
  C 3.147290 -1.219369 -3.452263
  C 2.861024 -1.030770 -4.937901
  H 6.204559 -1.716615 -1.792469
  H 0.629821 0.050286 1.502829
  H 0.916967 -1.642337 1.042733
  H 0.428984 -0.491193 -0.166822
  H 3.511930 1.473946 0.134864
  H 4.083225 0.500394 1.452191
  H 2.097352 1.192818 2.834020
  H 1.524802 2.188093 1.487535
  H 2.519426 -1.940592 -0.927468
  H 5.112831 -1.045992 0.187777
  H 4.891519 -2.455411 -3.682225
  H 5.225873 -0.765241 -3.765789
  H 2.852834 -0.314505 -2.914160
  H 2.541560 -2.047362 -3.085904
  H 3.422989 -0.192031 -5.341367
  H 1.804474 -0.836609 -5.099921
  H 3.128633 -1.921663 -5.500455
 28
 8.842153
  C 1.145686 -0.848517 0.922487
  C 2.469460 -0.456270 0.407226
  C 3.075797 0.868735 0.682910
  C 2.313190 1.802287 1.609240
  H 2.875391 2.724586 1.732649
  C 3.142515 -1.314572 -0.430196
  C 4.547450 -1.449701 -0.640432
  C 5.178254 -1.622108 -1.824222
  C 4.629083 -1.412715 -3.177784
  C 3.162863 -1.029198 -3.317000
  C 2.812044 -0.723627 -4.770307
  H 6.225739 -1.892717 -1.820447
  H 0.734069 -0.121929 1.612128
  H 1.205891 -1.819755 1.413435
  H 0.448399 -0.972995 0.092017
  H 3.246664 1.378955 -0.270662
  H 4.078916 0.682932 1.088161
  H 2.176633 1.361387 2.593623
  H 1.340656 2.063333 1.199414
  H 2.662733 -2.242617 -0.738290
  H 5.162503 -1.428635 0.253905
  H 4.818655 -2.325837 -3.756658
  H 5.257985 -0.655683 -3.663849
  H 2.957348 -0.143275 -2.710436
  H 2.523832 -1.838000 -2.967546
  H 3.407050 0.103898 -5.150468
  H 1.762882 -0.454013 -4.860443
  H 2.991875 -1.590535 -5.402006
 28
 20.396185
  C 1.325281 -1.026399 1.020361
  C 2.575674 -0.503591 0.423284
  C 2.981900 0.928031 0.552475
  C 2.093733 1.816178 1.405171
  H 2.508472 2.820242 1.421402
  C 3.327457 -1.311347 -0.365546
  C 4.701322 -1.583858 -0.671880
  C 5.233221 -1.709192 -1.905924
  C 4.597723 -1.413414 -3.206283
  C 3.169845 -0.883159 -3.205865
  C 2.714405 -0.525152 -4.619482
  H 6.244116 -2.084306 -1.986849
  H 0.862500 -0.311096 1.688359
  H 1.522529 -1.946054 1.568941
  H 0.614263 -1.272010 0.231700
  H 3.050087 1.364045 -0.448649
  H 3.999705 0.932172 0.953562
  H 2.042599 1.461699 2.431228
  H 1.088492 1.884644 0.999167
  H 3.017231 -2.357298 -0.549693
  H 5.366915 -1.695423 0.183995
  H 4.644934 -2.326334 -3.815719
  H 5.253575 -0.709831 -3.736779
  H 3.116336 0.012691 -2.581006
  H 2.486985 -1.628161 -2.797710
  H 3.362461 0.232445 -5.058970
  H 1.698491 -0.133676 -4.605940
  H 2.728613 -1.402021 -5.265139
 28
 37.086172
  C 1.532030 -1.167371 1.060171
  C 2.700451 -0.477086 0.429776
  C 2.883034 1.024835 0.538508
  C 1.855085 1.761828 1.383791
  H 2.102218 2.821448 1.385832
  C 3.564812 -1.153619 -0.297715
  C 4.840427 -1.603671 -0.741447
  C 5.253953 -1.768616 -2.040128
  C 4.544486 -1.425575 -3.277263
  C 3.157660 -0.808921 -3.164300
  C 2.608951 -0.440518 -4.539407
  H 6.233530 -2.205769 -2.180542
  H 0.957735 -0.490982 1.679831
  H 1.871113 -1.997124 1.676172
  H 0.873205 -1.565929 0.290849
  H 2.870382 1.446036 -0.469208
  H 3.879781 1.203377 0.948552
  H 1.864070 1.419857 2.415760
  H 0.852200 1.659352 0.977127
  H 3.478051 -2.300839 -0.462077
  H 5.577356 -1.778619 0.036957
  H 4.494191 -2.327893 -3.902600
  H 5.198622 -0.754811 -3.851629
  H 3.207952 0.091737 -2.549669
  H 2.468264 -1.508030 -2.689723
  H 3.251758 0.283216 -5.035525
  H 1.618095 -0.003022 -4.448917
  H 2.531269 -1.318895 -5.176085
 28
 45.600707
  C 1.649516 -1.242797 0.999409
  C 2.800224 -0.462821 0.431091
  C 2.867599 1.051893 0.565676
  C 1.740160 1.696981 1.358665
  H 1.905610 2.772090 1.384277
  C 3.745933 -1.052650 -0.235651
  C 4.936763 -1.584075 -0.779970
  C 5.281314 -1.732031 -2.125413
  C 4.491976 -1.392321 -3.314933
  C 3.112759 -0.780266 -3.103959
  C 2.465914 -0.423042 -4.438819
  H 6.254955 -2.159638 -2.318461
  H 0.996583 -0.611877 1.588618
  H 2.014888 -2.046823 1.633816
  H 1.061840 -1.682465 0.195713
  H 2.877563 1.479853 -0.438736
  H 3.820791 1.304254 1.034632
  H 1.718337 1.344576 2.387123
  H 0.772352 1.523594 0.894818
  H 3.880741 -2.287590 -0.453603
  H 5.739469 -1.761345 -0.067854
  H 4.403832 -2.292810 -3.938497
  H 5.099231 -0.712690 -3.928645
  H 3.201552 0.124386 -2.501011
  H 2.463104 -1.482212 -2.579306
  H 3.068323 0.301552 -4.982347
  H 1.480967 0.009342 -4.281499
  H 2.349604 -1.305714 -5.064025
 28
 47.617216
  C 1.283602 -1.473091 0.474077
  C 2.507039 -0.604967 0.329399
  C 2.456152 0.886930 0.663068
  C 1.122811 1.394063 1.191650
  H 1.218150 2.459295 1.393106
  C 3.619617 -1.079722 -0.116775
  C 4.864403 -1.627953 -0.475758
  C 5.495915 -1.563921 -1.764047
  C 4.930849 -1.094398 -3.032688
  C 3.481142 -0.625632 -3.044466
  C 3.092621 -0.106650 -4.425390
  H 6.521566 -1.901240 -1.801228
  H 0.463431 -0.926887 0.921843
  H 1.507920 -2.335331 1.098256
  H 0.964917 -1.830263 -0.503386
  H 2.711604 1.442508 -0.241405
  H 3.234310 1.091268 1.401343
  H 0.846721 0.906093 2.123656
  H 0.325175 1.265765 0.463493
  H 4.159347 -2.524254 -0.568804
  H 5.547133 -1.801056 0.351520
  H 5.067498 -1.885224 -3.783318
  H 5.572825 -0.279041 -3.394576
  H 3.345550 0.174550 -2.317412
  H 2.816952 -1.449701 -2.780885
  H 3.715664 0.737228 -4.713433
  H 2.056555 0.221871 -4.431848
  H 3.203487 -0.883795 -5.178381
 28
 46.171889
  C 1.452048 -1.307682 0.719744
  C 2.674701 -0.486316 0.383803
  C 2.681166 1.027273 0.613155
  C 1.420337 1.604068 1.237145
  H 1.553544 2.678794 1.345325
  C 3.717459 -1.036286 -0.133454
  C 4.855242 -1.716975 -0.596398
  C 5.341462 -1.733913 -1.967046
  C 4.663929 -1.273352 -3.178090
  C 3.248399 -0.721068 -3.049164
  C 2.732071 -0.237682 -4.400755
  H 6.326275 -2.153576 -2.105808
  H 0.712900 -0.712099 1.238766
  H 1.728734 -2.149127 1.349969
  H 1.005676 -1.693966 -0.194246
  H 2.849483 1.510659 -0.351807
  H 3.535740 1.263597 1.250165
  H 1.236698 1.194285 2.227677
  H 0.548273 1.440916 0.608349
  H 4.329686 -2.706484 -0.685657
  H 5.641823 -1.824327 0.152414
  H 4.675055 -2.087607 -3.915793
  H 5.307543 -0.504194 -3.631439
  H 3.240017 0.114216 -2.349259
  H 2.576595 -1.493864 -2.672844
  H 3.361504 0.556264 -4.797220
  H 1.720953 0.150518 -4.305888
  H 2.713546 -1.050585 -5.123748
 28
 44.456932
  C 1.409146 -1.242025 0.524586
  C 2.687060 -0.451788 0.357477
  C 2.729999 1.034113 0.726107
  C 1.450630 1.604330 1.317575
  H 1.610365 2.661576 1.523488
  C 3.743216 -1.006985 -0.120273
  C 4.864315 -1.720281 -0.585234
  C 5.355154 -1.676315 -1.960781
  C 4.655850 -1.252027 -3.168187
  C 3.226372 -0.735739 -3.040963
  C 2.665973 -0.364168 -4.408304
  H 6.343710 -2.085242 -2.109727
  H 0.690035 -0.693073 1.116409
  H 1.614073 -2.190222 1.010763
  H 0.976386 -1.441429 -0.451903
  H 2.979509 1.592462 -0.179198
  H 3.546558 1.178615 1.434623
  H 1.190949 1.123242 2.257502
  H 0.616604 1.524839 0.625684
  H 4.493013 -2.768366 -0.545784
  H 5.685501 -1.708558 0.141919
  H 4.681281 -2.085163 -3.887103
  H 5.275336 -0.481928 -3.653828
  H 3.203964 0.145663 -2.398309
  H 2.591555 -1.502940 -2.597017
  H 3.260487 0.418552 -4.872742
  H 1.646401 -0.001224 -4.316190
  H 2.657416 -1.224436 -5.072692
