12

C -3.50545 0.986108 -0.129279
C -2.063666 0.587698 -0.032034
C -1.652335 -0.477647 0.636346
C -0.237595 -0.946445 0.798616
H 0.07559796926095841 -0.6872766978648569 0.5917194042114203
H -4.10899 0.154403 -0.493912
H -3.63742 1.838622 -0.789024
H -3.887324 1.253934 0.856216
H -1.358694 1.224827 -0.539662
H -2.386459 -1.101084 1.133506
H -0.01307 -0.997731 1.86946
H -0.171008 -1.967984 0.410776
