 20
 0.000000
  C -1.001199 -0.106597 2.575311
  C -1.957017 -0.222730 1.391125
  C -2.984295 0.908874 1.420679
  C -1.207571 -0.214462 0.076771
  O -0.010316 -0.003458 0.008761
  C -2.001347 -0.487022 -1.168643
  H -1.545954 -0.159451 3.514580
  H -0.459620 0.836666 2.549750
  H -0.270986 -0.912980 2.563574
  H -2.474512 -1.186100 1.461210
  H -2.503663 1.875698 1.282330
  H -3.510116 0.921874 2.372021
  H -3.727515 0.794155 0.633838
  H -3.018229 -0.788795 -0.931905
  H -1.525595 -1.290362 -1.725794
  H -2.028964 0.413058 -1.777301
  O 3.357098 0.175554 -0.052751
  H 2.393012 0.004070 0.002553
  H 3.872878 -0.558516 0.343001
  H 3.588816 1.036519 0.355436
 20
 -1.266841
  C -0.957642 -0.106972 2.577618
  C -1.909246 -0.225048 1.385008
  C -2.944583 0.908859 1.405358
  C -1.163150 -0.212949 0.070264
  O 0.035265 -0.009547 0.003304
  C -1.972757 -0.483489 -1.160809
  H -1.515583 -0.164117 3.508576
  H -0.433080 0.842968 2.549274
  H -0.228384 -0.910922 2.562300
  H -2.432430 -1.186929 1.445147
  H -2.454699 1.872687 1.272898
  H -3.463749 0.916175 2.360758
  H -3.685070 0.791049 0.618543
  H -2.990093 -0.778048 -0.923619
  H -1.496428 -1.277209 -1.732697
  H -1.993073 0.410930 -1.781177
  O 3.212457 0.166621 -0.036138
  H 2.243494 0.007366 0.009437
  H 3.701107 -0.561860 0.394320
  H 3.433746 1.036959 0.363052
 20
 -1.543324
  C -0.973010 0.098786 2.614166
  C -1.904254 -0.163704 1.433405
  C -2.929773 0.969378 1.291424
  C -1.141168 -0.311104 0.136270
  O 0.055785 -0.109399 0.060429
  C -1.934331 -0.726465 -1.066102
  H -1.548113 0.172253 3.533157
  H -0.436005 1.033019 2.469432
  H -0.255735 -0.710710 2.721820
  H -2.439620 -1.103893 1.599405
  H -2.427933 1.906394 1.058349
  H -3.467313 1.093617 2.226052
  H -3.653949 0.761574 0.509133
  H -2.951132 -1.006546 -0.812917
  H -1.436577 -1.564118 -1.550349
  H -1.951760 0.096116 -1.779893
  O 3.144739 0.143924 -0.124366
  H 2.184171 -0.049140 -0.005138
  H 3.686786 -0.547388 0.353996
  H 3.354422 1.062041 0.214412
 20
 -3.029840
  C -1.003141 -0.144889 2.644084
  C -1.903489 -0.227380 1.413200
  C -2.881511 0.956381 1.377546
  C -1.104333 -0.242718 0.132038
  O 0.098705 -0.057821 0.118134
  C -1.864729 -0.508786 -1.129217
  H -1.605742 -0.159966 3.547680
  H -0.432018 0.780232 2.628483
  H -0.317283 -0.988033 2.675273
  H -2.482191 -1.160779 1.444337
  H -2.336002 1.892232 1.280173
  H -3.451204 0.986940 2.302813
  H -3.582978 0.874050 0.551642
  H -2.886466 -0.813046 -0.935260
  H -1.351340 -1.280771 -1.701310
  H -1.861770 0.393897 -1.737652
  O 3.022080 0.217155 -0.166838
  H 2.068778 0.010437 -0.026804
  H 3.580237 -0.525054 0.153678
  H 3.250795 1.053734 0.291388
 20
 -3.844134
  C -0.989066 -0.146208 2.646189
  C -1.882355 -0.227616 1.410444
  C -2.861826 0.954716 1.371502
  C -1.080203 -0.237781 0.132265
  O 0.120652 -0.042743 0.115638
  C -1.836613 -0.505074 -1.131545
  H -1.596738 -0.156566 3.545450
  H -0.415662 0.776938 2.632723
  H -0.307907 -0.992162 2.684341
  H -2.459362 -1.160256 1.436877
  H -2.317237 1.891907 1.277542
  H -3.435110 0.983192 2.294087
  H -3.560862 0.871628 0.542148
  H -2.859659 -0.812448 -0.941995
  H -1.318748 -1.275198 -1.702530
  H -1.832856 0.398452 -1.739741
  O 2.930473 0.209502 -0.169081
  H 1.974966 0.012512 -0.005004
  H 3.487465 -0.525489 0.165286
  H 3.170549 1.050877 0.271248
 20
 -4.204620
  C -0.971965 -0.135350 2.645961
  C -1.860740 -0.230197 1.408855
  C -2.853982 0.939820 1.368353
  C -1.054587 -0.229053 0.133278
  O 0.144856 -0.023296 0.121538
  C -1.803321 -0.488692 -1.135561
  H -1.583112 -0.140690 3.544202
  H -0.400742 0.788882 2.628257
  H -0.287957 -0.977223 2.692304
  H -2.424523 -1.168662 1.433280
  H -2.322754 1.883986 1.275482
  H -3.428357 0.960050 2.290427
  H -3.550266 0.848491 0.540442
  H -2.828442 -0.794572 -0.957705
  H -1.284818 -1.256398 -1.707363
  H -1.793995 0.416731 -1.741731
  O 2.839564 0.183618 -0.180682
  H 1.879619 0.012992 0.015654
  H 3.379530 -0.543019 0.194167
  H 3.101593 1.033130 0.234825
 20
 -4.694327
  C -0.966972 -0.145308 2.652231
  C -1.853128 -0.226423 1.410250
  C -2.835218 0.952514 1.364067
  C -1.038782 -0.233171 0.140087
  O 0.162730 -0.026671 0.141342
  C -1.769949 -0.497012 -1.135351
  H -1.580964 -0.151613 3.547201
  H -0.386957 0.773244 2.642614
  H -0.290196 -0.994553 2.697203
  H -2.429417 -1.157654 1.432067
  H -2.293758 1.892492 1.288330
  H -3.423281 0.971100 2.277648
  H -3.516551 0.874466 0.523789
  H -2.793484 -0.816273 -0.968539
  H -1.236067 -1.251640 -1.707297
  H -1.766730 0.412633 -1.734664
  O 2.757779 0.186979 -0.188542
  H 1.788962 0.022075 0.008127
  H 3.302922 -0.539001 0.177035
  H 3.021675 1.046599 0.198878
 20
 -5.022592
  C -1.007069 -0.154911 2.683672
  C -1.867897 -0.224383 1.424844
  C -2.837355 0.964837 1.360195
  C -1.026564 -0.232599 0.173024
  O 0.172425 -0.013496 0.202528
  C -1.729827 -0.501769 -1.117020
  H -1.639791 -0.164951 3.569086
  H -0.421174 0.760536 2.691155
  H -0.334427 -1.005825 2.734769
  H -2.454604 -1.149636 1.433186
  H -2.286061 1.899009 1.303959
  H -3.448014 0.984294 2.258225
  H -3.497269 0.897068 0.500816
  H -2.745387 -0.848686 -0.969575
  H -1.168018 -1.235013 -1.693745
  H -1.744675 0.416825 -1.703542
  O 2.742391 0.192453 -0.267961
  H 1.780123 0.019233 -0.041227
  H 3.298680 -0.542225 0.060670
  H 3.017762 1.045074 0.125375
 20
 -5.344907
  C -1.068819 -0.155287 2.733520
  C -1.884099 -0.224721 1.445149
  C -2.852930 0.964889 1.346677
  C -0.996735 -0.231276 0.225262
  O 0.200285 -0.012427 0.302836
  C -1.655442 -0.487064 -1.090156
  H -1.732790 -0.169607 3.597915
  H -0.485274 0.761306 2.763204
  H -0.393426 -1.004238 2.805524
  H -2.469982 -1.151334 1.432302
  H -2.301729 1.898753 1.306577
  H -3.488948 0.985513 2.222181
  H -3.487292 0.894710 0.465374
  H -2.677587 -0.841452 -0.979180
  H -1.077481 -1.206860 -1.658932
  H -1.658659 0.438267 -1.661917
  O 2.713327 0.199505 -0.381966
  H 1.766653 0.004861 -0.108429
  H 3.285934 -0.558620 -0.147334
  H 3.013694 1.017877 0.063266
 20
 -5.636186
  C -1.140133 -0.163549 2.793522
  C -1.898349 -0.226117 1.466976
  C -2.856928 0.966557 1.327747
  C -0.955891 -0.236219 0.292479
  O 0.239219 -0.041997 0.435232
  C -1.554293 -0.463565 -1.056564
  H -1.843468 -0.184132 3.630688
  H -0.558493 0.752229 2.854674
  H -0.465353 -1.011559 2.889621
  H -2.486763 -1.149531 1.424690
  H -2.301601 1.899167 1.321175
  H -3.536429 0.983646 2.172296
  H -3.445193 0.903607 0.418998
  H -2.578926 -0.820115 -0.997570
  H -0.952205 -1.170075 -1.619741
  H -1.537902 0.475236 -1.604691
  O 2.639831 0.207252 -0.517930
  H 1.712106 -0.010718 -0.176564
  H 3.227953 -0.563345 -0.386666
  H 2.975036 0.990659 -0.036945
 20
 -5.861346
  C -1.224711 -0.179554 2.855957
  C -1.907502 -0.228582 1.490632
  C -2.842296 0.974474 1.303361
  C -0.900475 -0.250452 0.371788
  O 0.292022 -0.098109 0.587362
  C -1.419661 -0.443257 -1.012822
  H -1.968675 -0.194543 3.647978
  H -0.636090 0.729327 2.953236
  H -0.565104 -1.034374 2.986475
  H -2.503488 -1.144744 1.413406
  H -2.274835 1.902066 1.331628
  H -3.568004 0.996600 2.111684
  H -3.382079 0.921100 0.362880
  H -2.448167 -0.785171 -1.019955
  H -0.794406 -1.148673 -1.555981
  H -1.360784 0.507984 -1.541204
  O 2.507156 0.218558 -0.670898
  H 1.614898 -0.032410 -0.237082
  H 3.120747 -0.541787 -0.634448
  H 2.876502 0.985748 -0.190008
 20
 -5.827367
  C -1.287258 -0.195289 2.895016
  C -1.903551 -0.234591 1.496926
  C -2.819719 0.976153 1.268717
  C -0.845024 -0.271858 0.431013
  O 0.343181 -0.182855 0.711277
  C -1.289929 -0.410961 -0.983452
  H -2.068459 -0.194499 3.649538
  H -0.686493 0.701815 3.020735
  H -0.649371 -1.063006 3.059547
  H -2.502974 -1.146376 1.389728
  H -2.247275 1.901521 1.330196
  H -3.584467 0.998940 2.042321
  H -3.313058 0.931593 0.306643
  H -2.334581 -0.695976 -1.060675
  H -0.671956 -1.140880 -1.501772
  H -1.147965 0.542007 -1.487824
  O 2.343543 0.224426 -0.765414
  H 1.485326 -0.058468 -0.241390
  H 2.985199 -0.511199 -0.786647
  H 2.728416 0.996883 -0.308061
 20
 -5.120595
  C -1.308788 -0.233005 2.889528
  C -1.906251 -0.235246 1.482474
  C -2.750510 1.026292 1.241420
  C -0.837976 -0.313620 0.429345
  O 0.347586 -0.248938 0.718853
  C -1.271782 -0.465135 -0.985217
  H -2.101706 -0.216753 3.633646
  H -0.682506 0.641923 3.036111
  H -0.703145 -1.123360 3.051270
  H -2.554745 -1.110311 1.362596
  H -2.131369 1.915493 1.311081
  H -3.519993 1.091989 2.001556
  H -3.233866 1.006519 0.270304
  H -2.309650 -0.764067 -1.069147
  H -0.641028 -1.185139 -1.497820
  H -1.141287 0.494301 -1.496933
  O 2.256983 0.281583 -0.756971
  H 1.404699 -0.058755 -0.224649
  H 2.952146 -0.407457 -0.764948
  H 2.579602 1.076870 -0.290936
 20
 -3.017290
  C -1.291692 -0.210327 2.872990
  C -1.893885 -0.240095 1.469793
  C -2.783977 0.991211 1.222919
  C -0.840495 -0.299501 0.413304
  O 0.354259 -0.226781 0.739140
  C -1.242598 -0.415752 -0.999398
  H -2.083675 -0.189459 3.618714
  H -0.672412 0.673366 3.005298
  H -0.678556 -1.090508 3.048886
  H -2.517508 -1.136411 1.359823
  H -2.193912 1.902884 1.286510
  H -3.550667 1.032364 1.988857
  H -3.270651 0.951861 0.255652
  H -2.290102 -0.670016 -1.117154
  H -0.622408 -1.149064 -1.508375
  H -1.054239 0.538929 -1.495520
  O 2.234478 0.245854 -0.750290
  H 1.208342 -0.145281 -0.086341
  H 2.932019 -0.420485 -0.827152
  H 2.596050 1.031818 -0.315335
 20
 -2.787870
  C -1.307414 -0.206737 2.874692
  C -1.904884 -0.240342 1.471730
  C -2.798991 0.986449 1.219129
  C -0.856436 -0.306361 0.420324
  O 0.346877 -0.246941 0.768568
  C -1.230713 -0.409449 -0.992177
  H -2.099933 -0.180138 3.614757
  H -0.685872 0.675470 3.006796
  H -0.698145 -1.087903 3.056894
  H -2.529771 -1.135236 1.362136
  H -2.214867 1.899595 1.290610
  H -3.572704 1.019890 1.981496
  H -3.276848 0.947569 0.250455
  H -2.279683 -0.636421 -1.137349
  H -0.612594 -1.154952 -1.495677
  H -1.004664 0.540514 -1.483904
  O 2.296767 0.250287 -0.750438
  H 1.075644 -0.212522 0.012893
  H 3.009049 -0.374572 -0.916508
  H 2.683553 1.046409 -0.372103
