19
 0
 C -3.22929796 -1.77679384 0.52703313
 C -1.72437633 -1.63171373 0.33670648
 C -1.24432478 -2.55834962 -0.77910891
 C -1.21581673 -0.21438111 0.06772672
 C -2.17107710 0.93205352 -0.14477993
 O 0.00000000 0.00000000 0.00000000
 H -3.48845668 -2.81007761 0.78267539
 H -3.77816472 -1.51353859 -0.38367446
 H -3.58727197 -1.13814439 1.34131282
 H -1.24929341 -1.94136641 1.27685982
 H -1.66599595 -2.26400707 -1.74642318
 H -1.53465566 -3.59525944 -0.57904225
 H -0.15324944 -2.53133683 -0.87333266
 H -3.21506017 0.65954424 -0.00161494
 H -2.05230416 1.30805652 -1.16447310
 H -1.93139649 1.72370409 0.57109911
 O 3.35285372 -0.16801368 -0.05299085
 H 2.40000000 0.00000000 0.00000000
 H 3.56154852 -0.59992821 0.78894261
