 19
 0.000000
  C -3.240326 -1.758638 0.541765
  C -1.755419 -1.630444 0.342003
  C -1.232417 -2.496034 -0.789213
  C -1.187646 -0.201185 0.062628
  C -2.183615 0.882739 -0.153146
  O -0.012049 -0.023844 0.002581
  H -3.472957 -2.793255 0.800932
  H -3.802086 -1.538429 -0.364966
  H -3.597873 -1.140240 1.362303
  H -1.254187 -1.900110 1.284449
  H -1.658469 -2.218880 -1.753697
  H -1.520462 -3.530889 -0.602962
  H -0.148860 -2.433474 -0.867990
  H -3.211085 0.574240 -0.009243
  H -2.042114 1.247806 -1.172119
  H -1.935231 1.692010 0.534916
  O 3.345536 -0.204127 -0.045657
  H 2.398458 -0.023322 0.003760
  H 3.584462 -0.623474 0.790573
 19
 -0.293839
  C -3.197885 -1.764357 0.564413
  C -1.729703 -1.632151 0.341771
  C -1.219689 -2.463855 -0.808887
  C -1.158400 -0.173320 0.058823
  C -2.171173 0.885538 -0.170650
  O 0.016252 -0.000494 0.010732
  H -3.404404 -2.797145 0.849129
  H -3.776869 -1.584681 -0.337994
  H -3.549657 -1.145499 1.384390
  H -1.194990 -1.866967 1.271513
  H -1.687224 -2.192731 -1.753525
  H -1.490511 -3.503894 -0.626932
  H -0.142762 -2.385747 -0.916839
  H -3.200788 0.567740 -0.032006
  H -2.017735 1.245851 -1.193942
  H -1.927221 1.714924 0.500525
  O 3.210209 -0.260306 -0.014018
  H 2.271802 -0.083431 0.014500
  H 3.450275 -0.673854 0.824487
 19
 -0.452377
  C -3.155720 -1.755060 0.585746
  C -1.684655 -1.612825 0.336951
  C -1.180902 -2.433454 -0.827041
  C -1.136907 -0.157531 0.051711
  C -2.167709 0.880919 -0.183002
  O 0.037646 0.027476 0.003063
  H -3.348286 -2.790247 0.886875
  H -3.753302 -1.589986 -0.311077
  H -3.501236 -1.129613 1.408576
  H -1.131804 -1.844179 1.257398
  H -1.669258 -2.165639 -1.763424
  H -1.435123 -3.478992 -0.644863
  H -0.105988 -2.343064 -0.952708
  H -3.186942 0.548835 -0.040722
  H -2.023660 1.234959 -1.204842
  H -1.937922 1.716904 0.476620
  O 3.064866 -0.362470 0.001131
  H 2.127586 -0.130689 0.015579
  H 3.285126 -0.733294 0.863838
 19
 -0.749831
  C -3.055647 -1.761541 0.630012
  C -1.602650 -1.545924 0.331536
  C -1.092284 -2.341384 -0.851134
  C -1.142539 -0.059353 0.020325
  C -2.234800 0.909843 -0.217445
  O 0.018455 0.185590 -0.049007
  H -3.177967 -2.795527 0.967146
  H -3.687718 -1.656577 -0.249082
  H -3.409451 -1.136597 1.444691
  H -1.007780 -1.742438 1.232808
  H -1.628997 -2.108566 -1.769839
  H -1.279160 -3.398742 -0.656256
  H -0.029770 -2.194975 -1.013195
  H -3.230590 0.523618 -0.047988
  H -2.130150 1.246745 -1.254468
  H -2.041978 1.775386 0.416768
  O 2.829312 -0.769856 0.043874
  H 2.005787 -0.265635 0.008237
  H 3.009671 -0.970444 0.969386
 19
 -1.430738
  C -2.924690 -1.751390 0.675791
  C -1.499200 -1.467605 0.311855
  C -0.997815 -2.239994 -0.886540
  C -1.133972 0.042444 -0.022155
  C -2.286416 0.940581 -0.251284
  O 0.009072 0.352230 -0.118599
  H -2.974106 -2.781206 1.046541
  H -3.595834 -1.706668 -0.178014
  H -3.279789 -1.124121 1.486462
  H -0.853111 -1.627887 1.183179
  H -1.590420 -2.051989 -1.780409
  H -1.110966 -3.303435 -0.673066
  H 0.052390 -2.039457 -1.095963
  H -3.251374 0.502982 -0.046535
  H -2.230075 1.253941 -1.295618
  H -2.128013 1.834863 0.357511
  O 2.435909 -1.210809 0.144823
  H 1.822642 -0.471722 0.020508
  H 2.672086 -1.234894 1.078948
 19
 -1.236777
  C -2.886087 -1.737431 0.633192
  C -1.448470 -1.422454 0.336114
  C -0.883535 -2.231227 -0.809780
  C -1.110516 0.081461 -0.005410
  C -2.277813 0.970342 -0.216840
  O 0.020402 0.434181 -0.109046
  H -2.937676 -2.775007 0.970082
  H -3.520220 -1.676313 -0.248364
  H -3.287089 -1.133103 1.443560
  H -0.849606 -1.560017 1.247790
  H -1.395832 -2.034893 -1.745471
  H -1.038399 -3.292099 -0.589569
  H 0.185427 -2.070214 -0.943505
  H -3.232821 0.534165 0.037859
  H -2.263953 1.249187 -1.271849
  H -2.098789 1.887051 0.353028
  O 2.135409 -1.352288 0.027349
  H 1.603961 -0.546964 -0.085420
  H 2.449871 -1.382237 0.938575
 19
 0.824152
  C -2.910419 -1.736179 0.560333
  C -1.455242 -1.391979 0.369604
  C -0.803284 -2.269818 -0.685327
  C -1.105716 0.078740 0.012543
  C -2.250924 1.017788 -0.141328
  O 0.023513 0.422782 -0.171880
  H -2.982115 -2.771724 0.891700
  H -3.471857 -1.669271 -0.370498
  H -3.378910 -1.135170 1.335298
  H -0.951567 -1.520161 1.340014
  H -1.159586 -2.053158 -1.690692
  H -1.013654 -3.315540 -0.463724
  H 0.284052 -2.141220 -0.698418
  H -3.203793 0.619326 0.177071
  H -2.293960 1.283734 -1.200808
  H -2.005395 1.933247 0.397657
  O 2.064797 -1.323961 -0.200960
  H 1.500998 -0.527343 -0.198418
  H 2.308934 -1.526260 0.707359
 19
 3.817829
  C -2.848040 -1.739840 0.543424
  C -1.376416 -1.341312 0.367572
  C -0.754688 -2.298460 -0.623439
  C -1.103195 0.108928 -0.009282
  C -2.235877 1.063989 -0.115683
  O 0.031515 0.491475 -0.205663
  H -2.909271 -2.771044 0.875961
  H -3.388835 -1.659519 -0.391426
  H -3.322990 -1.126023 1.309874
  H -0.890150 -1.471413 1.345993
  H -1.060588 -2.128439 -1.652467
  H -0.895165 -3.334918 -0.327498
  H 0.393706 -2.138338 -0.628617
  H -3.190416 0.662591 0.206328
  H -2.304291 1.369732 -1.159630
  H -1.988248 1.968186 0.440823
  O 1.768199 -1.413788 -0.308275
  H 1.263880 -0.547017 -0.268830
  H 2.039763 -1.690652 0.578510
 19
 7.428376
  C -2.819724 -1.757887 0.569575
  C -1.352871 -1.350295 0.359714
  C -0.731072 -2.303724 -0.632723
  C -1.098708 0.099349 -0.012123
  C -2.206513 1.072547 -0.123072
  O 0.046589 0.501420 -0.245758
  H -2.866020 -2.776905 0.941172
  H -3.376271 -1.712279 -0.362243
  H -3.287261 -1.118045 1.311326
  H -0.844581 -1.495903 1.328586
  H -1.016223 -2.138444 -1.666230
  H -0.809763 -3.342664 -0.335755
  H 0.480488 -2.093379 -0.606787
  H -3.165530 0.698124 0.204285
  H -2.276292 1.371944 -1.171014
  H -1.945200 1.984153 0.413485
  O 1.607495 -1.415177 -0.290854
  H 1.049967 -0.448249 -0.275427
  H 1.878696 -1.731126 0.586096
 19
 10.523075
  C -2.815517 -1.762310 0.565450
  C -1.349918 -1.344132 0.375953
  C -0.702355 -2.295861 -0.604675
  C -1.110500 0.092197 -0.009163
  C -2.207728 1.065476 -0.131182
  O 0.047999 0.501637 -0.240439
  H -2.855827 -2.782018 0.931094
  H -3.359617 -1.718325 -0.369995
  H -3.301051 -1.129690 1.306062
  H -0.849669 -1.473969 1.355653
  H -0.977751 -2.140199 -1.641925
  H -0.773511 -3.335634 -0.306021
  H 0.533310 -2.061170 -0.567161
  H -3.171212 0.692168 0.187521
  H -2.267093 1.366275 -1.180768
  H -1.951436 1.979611 0.405659
  O 1.594554 -1.448435 -0.321720
  H 0.923325 -0.314473 -0.268419
  H 1.903280 -1.811625 0.524177
 19
 11.139625
  C -2.820418 -1.764316 0.578413
  C -1.356595 -1.337782 0.394228
  C -0.688531 -2.279220 -0.583534
  C -1.126880 0.096560 0.003046
  C -2.219320 1.059115 -0.156942
  O 0.036267 0.527412 -0.219964
  H -2.854421 -2.783853 0.943472
  H -3.362630 -1.725454 -0.361077
  H -3.314623 -1.138023 1.315246
  H -0.867628 -1.460415 1.371745
  H -0.929513 -2.107968 -1.624081
  H -0.758891 -3.320193 -0.300612
  H 0.591498 -2.040473 -0.522902
  H -3.185405 0.684649 0.148736
  H -2.259259 1.344727 -1.210118
  H -1.979405 1.985327 0.363869
  O 1.633486 -1.500699 -0.337705
  H 0.840109 -0.180284 -0.213884
  H 1.977950 -1.936067 0.453189
 19
 11.906103
  C -2.805849 -1.759162 0.618605
  C -1.347603 -1.320711 0.400740
  C -0.699268 -2.240219 -0.602980
  C -1.143232 0.112092 0.001319
  C -2.250182 1.045011 -0.201684
  O 0.014190 0.567630 -0.198102
  H -2.821046 -2.779364 0.981546
  H -3.369713 -1.725621 -0.307611
  H -3.288410 -1.140633 1.366513
  H -0.835973 -1.441892 1.366557
  H -0.917653 -2.030102 -1.638868
  H -0.775495 -3.287775 -0.354750
  H 0.657899 -2.034113 -0.545361
  H -3.219648 0.642193 0.050572
  H -2.244292 1.350928 -1.250012
  H -2.059863 1.970020 0.341870
  O 1.695025 -1.587666 -0.279851
  H 0.811116 -0.067200 -0.121599
  H 2.061331 -2.079676 0.465223
 19
 15.337261
  C -2.768254 -1.737727 0.668497
  C -1.327351 -1.250112 0.429308
  C -0.662865 -2.147715 -0.584066
  C -1.193861 0.178999 0.017664
  C -2.333639 1.039152 -0.264784
  O -0.051064 0.711969 -0.116053
  H -2.742552 -2.755386 1.042616
  H -3.343341 -1.739536 -0.252118
  H -3.262417 -1.123653 1.413687
  H -0.803354 -1.359517 1.390510
  H -0.821207 -1.900078 -1.623730
  H -0.769992 -3.199011 -0.371535
  H 0.804896 -2.064846 -0.506290
  H -3.290623 0.565548 -0.104247
  H -2.259524 1.390640 -1.296457
  H -2.248983 1.956805 0.320623
  O 1.837969 -1.896582 -0.351466
  H 0.750868 0.164893 0.049703
  H 2.127777 -2.538520 0.306806
 19
 15.687180
  C -2.744531 -1.756134 0.638282
  C -1.302892 -1.256667 0.431182
  C -0.615238 -2.140755 -0.581055
  C -1.170512 0.180784 0.042616
  C -2.307854 1.050432 -0.216186
  O -0.029084 0.708924 -0.080207
  H -2.720370 -2.776474 0.994593
  H -3.305494 -1.744060 -0.292587
  H -3.253969 -1.159238 1.384731
  H -0.793389 -1.375729 1.400598
  H -0.774064 -1.889178 -1.621466
  H -0.723974 -3.194364 -0.379490
  H 0.824826 -2.044565 -0.484093
  H -3.265504 0.581655 -0.051091
  H -2.244682 1.412144 -1.245055
  H -2.211559 1.960453 0.376782
  O 1.844241 -1.865913 -0.337628
  H 0.767970 0.147915 0.065492
  H 2.118892 -2.501224 0.336680
