20
 0
 C 0.95789000 -0.01578000 -0.00444000
 C 2.45139000 -0.00038000 0.01045000
 C 3.16396000 0.81657000 0.80003000
 C 4.60894000 0.83023000 0.81323000
 C 5.32268000 1.64692000 1.60257000
 C 6.76800000 1.65837000 1.61363000
 C 7.48422000 2.47380000 2.40174000
 C 8.97806000 2.50133000 2.42835000
 H 0.60049000 -0.75985000 -0.72358000
 H 0.55987000 0.95804000 -0.30569000
 H 0.55987000 -0.28369000 0.97907000
 H 2.95236000 -0.69437000 -0.66030000
 H 2.64740000 1.50542000 1.46581000
 H 5.11707000 0.13840000 0.14458000
 H 4.81538000 2.33902000 2.27148000
 H 7.27935000 0.96758000 0.94598000
 H 6.98303000 3.16794000 3.07263000
 H 9.41874000 1.78087000 1.73202000
 H 9.33691000 2.26625000 3.43501000
 H 9.33691000 3.49940000 2.15912000
