 29
 0.000000
  H 1.452602 0.159333 0.450967
  C 2.530882 0.145047 0.414407
  C 3.292654 0.614163 1.579895
  C 2.452387 1.089015 2.761197
  C 3.338779 1.552844 3.913306
  C 3.099733 -0.324277 -0.753644
  C 4.473977 -0.418616 -0.989700
  C 5.136920 -0.874847 -2.128092
  C 4.613919 -1.392376 -3.419409
  C 3.118704 -1.500753 -3.691053
  C 2.881704 -2.061769 -5.091041
  O 6.452729 -0.876380 -2.132805
  H 3.952303 1.432620 1.266940
  H 3.953026 -0.192504 1.920640
  H 1.810398 0.279370 3.112969
  H 1.809739 1.916298 2.454512
  H 3.974155 0.743958 4.266943
  H 2.727765 1.888211 4.747689
  H 3.973447 2.381764 3.608068
  H 2.420173 -0.635182 -1.527241
  H 5.108956 -0.091219 -0.174594
  H 5.065576 -2.382341 -3.553602
  H 5.066154 -0.769547 -4.200189
  H 2.649368 -0.518135 -3.632377
  H 2.648781 -2.170562 -2.970090
  H 3.317118 -1.415958 -5.849870
  H 1.815539 -2.140190 -5.287684
  H 3.316588 -3.053148 -5.193712
  H 6.857735 -0.546328 -1.307620
 29
 -0.042557
  H 1.532806 0.612796 0.327305
  C 2.597065 0.429769 0.303044
  C 3.326394 0.625301 1.561506
  C 2.449431 1.077778 2.724254
  C 3.269354 1.268185 3.997189
  C 3.137364 0.003422 -0.890126
  C 4.508507 -0.176921 -1.101397
  C 5.160051 -0.734403 -2.202376
  C 4.608617 -1.391185 -3.414977
  C 3.108466 -1.521251 -3.642495
  C 2.847194 -2.302639 -4.927752
  O 6.472655 -0.747632 -2.221242
  H 4.127192 1.360443 1.409133
  H 3.841870 -0.302578 1.838255
  H 1.669548 0.335422 2.908329
  H 1.956839 2.018675 2.470148
  H 3.749718 0.337890 4.293371
  H 2.630015 1.590702 4.815827
  H 4.038246 2.023539 3.855444
  H 2.457984 -0.148373 -1.710349
  H 5.162042 0.169926 -0.309718
  H 5.054956 -2.392590 -3.438083
  H 5.057629 -0.878014 -4.274077
  H 2.651669 -0.536126 -3.744872
  H 2.643107 -2.053546 -2.812762
  H 3.282598 -1.798019 -5.785993
  H 1.778008 -2.398322 -5.100504
  H 3.269010 -3.302734 -4.868984
  H 6.906561 -0.326694 -1.453205
 29
 0.733435
  H 1.596993 0.932353 0.186520
  C 2.640382 0.651939 0.182248
  C 3.315919 0.607530 1.485266
  C 2.439149 1.041842 2.656098
  C 3.202077 0.978785 3.974614
  C 3.202702 0.302800 -1.022521
  C 4.571485 0.059031 -1.205316
  C 5.207986 -0.597349 -2.257200
  C 4.619555 -1.388348 -3.368110
  C 3.111163 -1.497856 -3.541640
  C 2.787907 -2.470224 -4.672697
  O 6.519916 -0.626884 -2.297007
  H 4.213558 1.238646 1.450351
  H 3.693744 -0.405002 1.672326
  H 1.561856 0.395185 2.719322
  H 2.086774 2.062093 2.493008
  H 3.542765 -0.034418 4.178610
  H 2.563942 1.289857 4.797406
  H 4.067872 1.636362 3.954930
  H 2.561186 0.310981 -1.888020
  H 5.229658 0.438086 -0.430837
  H 5.035673 -2.398439 -3.263620
  H 5.065124 -1.009388 -4.295413
  H 2.686247 -0.527015 -3.796632
  H 2.649175 -1.861305 -2.623862
  H 3.216509 -2.130863 -5.612751
  H 1.712286 -2.552564 -4.803852
  H 3.177531 -3.462601 -4.458005
  H 6.971443 -0.131460 -1.586668
 29
 2.465623
  H 1.668429 1.188762 0.069844
  C 2.682676 0.819953 0.073483
  C 3.298220 0.581795 1.384175
  C 2.428993 0.997216 2.566782
  C 3.135227 0.736521 3.895336
  C 3.269189 0.523207 -1.127996
  C 4.641578 0.254591 -1.295690
  C 5.260753 -0.512145 -2.276997
  C 4.632900 -1.409566 -3.280200
  C 3.114277 -1.467253 -3.421090
  C 2.721199 -2.552017 -4.419665
  O 6.572228 -0.565509 -2.334179
  H 4.258571 1.113147 1.427425
  H 3.562654 -0.476523 1.483281
  H 1.487237 0.441232 2.546103
  H 2.188515 2.057963 2.490080
  H 3.364228 -0.317011 4.011897
  H 2.501033 1.037158 4.729316
  H 4.064827 1.300409 3.959595
  H 2.675373 0.670110 -2.016917
  H 5.303554 0.703863 -0.563988
  H 5.006770 -2.413560 -3.056489
  H 5.078896 -1.166070 -4.247397
  H 2.729832 -0.513172 -3.783842
  H 2.652652 -1.689962 -2.457801
  H 3.143897 -2.350772 -5.397532
  H 1.638030 -2.596571 -4.523584
  H 3.070049 -3.532679 -4.091116
  H 7.040781 -0.001680 -1.692001
 29
 5.208212
  H 1.779419 1.446540 -0.030807
  C 2.743401 0.961347 -0.022384
  C 3.270565 0.538022 1.283733
  C 2.422684 0.980164 2.473338
  C 3.046898 0.543461 3.790815
  C 3.349411 0.676962 -1.210713
  C 4.724780 0.384341 -1.372946
  C 5.319300 -0.468916 -2.291475
  C 4.641737 -1.439912 -3.185521
  C 3.120974 -1.444575 -3.272736
  C 2.647812 -2.575340 -4.177069
  O 6.629957 -0.545784 -2.378756
  H 4.293442 0.924969 1.387036
  H 3.382026 -0.552378 1.302344
  H 1.421722 0.551857 2.392445
  H 2.320558 2.067258 2.467004
  H 3.136881 -0.539764 3.837879
  H 2.433720 0.864581 4.624860
  H 4.035406 0.975877 3.913837
  H 2.821959 0.956739 -2.111289
  H 5.401232 0.902300 -0.698763
  H 4.986991 -2.431633 -2.872237
  H 5.065683 -1.308367 -4.186158
  H 2.762387 -0.500612 -3.685312
  H 2.684818 -1.577265 -2.279361
  H 3.041498 -2.459038 -5.182935
  H 1.561160 -2.580581 -4.239173
  H 2.968287 -3.541601 -3.795414
  H 7.121455 0.064581 -1.801246
 29
 7.821794
  H 2.016814 1.789564 -0.115002
  C 2.883625 1.136462 -0.102825
  C 3.276364 0.558537 1.196703
  C 2.426019 1.029287 2.371610
  C 2.873356 0.374050 3.678797
  C 3.496149 0.819201 -1.275394
  C 4.855330 0.439661 -1.433415
  C 5.385324 -0.490024 -2.313939
  C 4.630219 -1.436789 -3.171833
  C 3.108237 -1.443846 -3.105530
  C 2.549044 -2.599161 -3.927981
  O 6.686784 -0.668689 -2.401253
  H 4.334106 0.800175 1.373562
  H 3.243024 -0.532268 1.140906
  H 1.383237 0.783389 2.189804
  H 2.501618 2.113694 2.468708
  H 2.752906 -0.706503 3.634079
  H 2.280939 0.743383 4.509774
  H 3.916892 0.594887 3.886074
  H 3.035419 1.181485 -2.183962
  H 5.563217 0.946470 -0.779979
  H 5.010812 -2.436264 -2.931478
  H 4.949040 -1.263121 -4.207949
  H 2.703857 -0.512122 -3.499366
  H 2.778322 -1.554081 -2.070004
  H 2.852196 -2.518335 -4.969262
  H 1.462720 -2.597301 -3.892264
  H 2.895466 -3.552578 -3.546177
  H 7.223431 -0.110346 -1.805262
 29
 12.591509
  H 2.159142 1.870333 -0.126232
  C 2.943285 1.129021 -0.108729
  C 3.244143 0.495416 1.191490
  C 2.479375 1.104655 2.362945
  C 2.758145 0.349484 3.658211
  C 3.564013 0.781200 -1.263778
  C 4.927107 0.460882 -1.504835
  C 5.426436 -0.525215 -2.335214
  C 4.634510 -1.503439 -3.124198
  C 3.115765 -1.404699 -3.093246
  C 2.490071 -2.574029 -3.844924
  O 6.725034 -0.723482 -2.448168
  H 4.327725 0.569552 1.364802
  H 3.032091 -0.576685 1.141479
  H 1.407352 1.078793 2.157669
  H 2.770643 2.148319 2.486751
  H 2.466259 -0.690957 3.569705
  H 2.198901 0.791370 4.485348
  H 3.811770 0.388471 3.908662
  H 3.147103 1.231654 -2.166081
  H 5.639385 0.991083 -0.882274
  H 4.952134 -2.502249 -2.794676
  H 4.981146 -1.434607 -4.161398
  H 2.784554 -0.475444 -3.558072
  H 2.761230 -1.419710 -2.059371
  H 2.781440 -2.562785 -4.895543
  H 1.407677 -2.518529 -3.796203
  H 2.797303 -3.519689 -3.417970
  H 7.285197 -0.072124 -1.985009
 29
 20.088678
  H 2.404574 1.935865 -0.127571
  C 3.157364 1.162026 -0.068811
  C 3.330656 0.512240 1.256500
  C 2.386658 1.061357 2.320624
  C 2.555081 0.320614 3.645964
  C 3.782033 0.759753 -1.188167
  C 5.108665 0.440579 -1.611518
  C 5.505394 -0.622524 -2.391906
  C 4.607438 -1.596931 -3.073756
  C 3.106475 -1.354947 -3.017529
  C 2.354870 -2.478008 -3.728796
  O 6.769471 -0.788826 -2.717012
  H 4.371232 0.645190 1.572845
  H 3.179374 -0.564244 1.164610
  H 1.349581 0.961399 1.983789
  H 2.586735 2.119260 2.474128
  H 2.317319 -0.733330 3.534905
  H 1.892805 0.738349 4.403775
  H 3.576304 0.405363 4.007909
  H 3.411069 1.255135 -2.102031
  H 5.890610 1.034022 -1.153462
  H 4.831394 -2.587849 -2.653090
  H 4.935579 -1.661344 -4.116998
  H 2.858938 -0.412072 -3.507297
  H 2.770162 -1.303809 -1.977529
  H 2.615210 -2.512100 -4.783701
  H 1.281234 -2.322053 -3.651384
  H 2.587429 -3.446430 -3.289059
  H 7.387139 -0.132836 -2.338077
 29
 29.171490
  H 2.663218 1.934745 -0.129519
  C 3.344495 1.117604 -0.009970
  C 3.322247 0.460556 1.335407
  C 2.276842 1.064586 2.270563
  C 2.315538 0.395254 3.642572
  C 4.026540 0.666578 -1.055092
  C 5.285033 0.338059 -1.647641
  C 5.569416 -0.619377 -2.600359
  C 4.590924 -1.539923 -3.237003
  C 3.135531 -1.441052 -2.807838
  C 2.287474 -2.450625 -3.570987
  O 6.785888 -0.747090 -3.084930
  H 4.318007 0.552095 1.785679
  H 3.123536 -0.607993 1.219367
  H 1.282998 0.936633 1.842318
  H 2.459024 2.136148 2.386313
  H 2.089309 -0.663120 3.561610
  H 1.581267 0.846288 4.309303
  H 3.298335 0.501676 4.099192
  H 3.811403 1.297507 -1.950751
  H 6.126214 0.917033 -1.272400
  H 4.950766 -2.560011 -3.060668
  H 4.668381 -1.405025 -4.318817
  H 2.748595 -0.448737 -3.006542
  H 3.046404 -1.641928 -1.741613
  H 2.347142 -2.276050 -4.642838
  H 1.241377 -2.371757 -3.272392
  H 2.617503 -3.465191 -3.372181
  H 7.459027 -0.190461 -2.658286
 29
 35.447864
  H 2.757196 1.984785 -0.165701
  C 3.434526 1.140177 -0.034306
  C 3.314622 0.413876 1.271083
  C 2.289300 1.059341 2.192391
  C 2.129257 0.255159 3.479105
  C 4.205933 0.760702 -1.021710
  C 5.395280 0.414849 -1.732111
  C 5.578641 -0.564581 -2.694955
  C 4.540097 -1.485177 -3.227576
  C 3.139593 -1.391162 -2.642440
  C 2.251581 -2.487855 -3.221708
  O 6.775318 -0.778579 -3.220411
  H 4.292711 0.394618 1.762647
  H 3.026851 -0.624025 1.083454
  H 1.322685 1.121846 1.687197
  H 2.609017 2.074651 2.442800
  H 1.828220 -0.768787 3.260556
  H 1.368968 0.703427 4.117138
  H 3.059306 0.224721 4.033635
  H 4.146995 1.438786 -1.944552
  H 6.287127 0.919090 -1.368248
  H 4.921093 -2.503513 -3.094621
  H 4.495825 -1.343939 -4.317611
  H 2.689996 -0.423894 -2.876972
  H 3.180387 -1.506654 -1.557320
  H 2.165503 -2.388379 -4.303930
  H 1.254595 -2.432487 -2.797278
  H 2.654837 -3.468739 -3.004944
  H 7.484724 -0.192346 -2.886374
 29
 42.598785
  H 2.724278 1.873509 -0.214790
  C 3.440276 1.072718 -0.012971
  C 3.355827 0.417401 1.326986
  C 2.216454 0.976095 2.167973
  C 2.123398 0.254356 3.510159
  C 4.281064 0.739587 -0.936290
  C 5.404074 0.437659 -1.775190
  C 5.565825 -0.584254 -2.699655
  C 4.516915 -1.523170 -3.188874
  C 3.115512 -1.365951 -2.625630
  C 2.195936 -2.440605 -3.196980
  O 6.750701 -0.779972 -3.284395
  H 4.303917 0.557299 1.851779
  H 3.217220 -0.659484 1.194240
  H 1.270909 0.861342 1.637216
  H 2.378957 2.041966 2.341957
  H 1.940752 -0.807544 3.363116
  H 1.309199 0.660949 4.105412
  H 3.045120 0.367179 4.078959
  H 4.338578 1.338721 -1.966616
  H 6.299856 0.988167 -1.492864
  H 4.875281 -2.544727 -2.990950
  H 4.490939 -1.445125 -4.284619
  H 2.703948 -0.388075 -2.882958
  H 3.139029 -1.461599 -1.538092
  H 2.138297 -2.365190 -4.279800
  H 1.192089 -2.333495 -2.794704
  H 2.555537 -3.434920 -2.944732
  H 7.458705 -0.180956 -2.974345
 29
 46.002816
  H 2.647510 1.807086 -0.205096
  C 3.441044 1.089087 -0.029464
  C 3.396930 0.435552 1.334447
  C 2.171002 0.868851 2.132204
  C 2.128161 0.166291 3.484618
  C 4.322255 0.820876 -0.928162
  C 5.394234 0.528305 -1.809777
  C 5.544769 -0.608627 -2.654232
  C 4.478326 -1.544750 -3.098748
  C 3.058555 -1.295077 -2.601427
  C 2.119152 -2.376522 -3.126920
  O 6.734312 -0.884689 -3.180282
  H 4.303702 0.699908 1.882201
  H 3.393160 -0.649119 1.215476
  H 1.263793 0.628104 1.576513
  H 2.195659 1.948910 2.291479
  H 2.075516 -0.912693 3.358568
  H 1.255935 0.483758 4.050775
  H 3.014940 0.399571 4.069805
  H 4.603547 1.328945 -2.236239
  H 6.322114 1.041560 -1.556679
  H 4.787818 -2.554621 -2.806528
  H 4.486897 -1.554926 -4.195040
  H 2.696845 -0.326478 -2.947625
  H 3.034420 -1.310229 -1.513062
  H 2.101884 -2.382539 -4.214521
  H 1.105661 -2.203563 -2.774479
  H 2.431433 -3.361016 -2.786973
  H 7.455196 -0.299907 -2.888318
 29
 41.094711
  H 2.607040 1.599052 -0.183381
  C 3.462850 0.968094 0.050520
  C 3.422367 0.413609 1.467704
  C 2.131985 0.793524 2.192780
  C 2.093206 0.185862 3.586390
  C 4.369976 0.706636 -0.819907
  C 5.334390 0.604813 -1.865883
  C 5.526595 -0.597838 -2.678112
  C 4.472140 -1.540550 -3.105233
  C 3.033611 -1.238623 -2.699331
  C 2.099549 -2.345936 -3.193313
  O 6.719663 -0.867010 -3.154900
  H 4.285172 0.796643 2.019535
  H 3.517144 -0.674294 1.427490
  H 1.265016 0.436158 1.624338
  H 2.060286 1.882788 2.276184
  H 2.142908 -0.902157 3.536204
  H 1.170857 0.460972 4.096530
  H 2.930456 0.540286 4.184843
  H 4.729605 1.269737 -2.508572
  H 6.262540 1.126690 -1.633482
  H 4.751019 -2.533773 -2.731164
  H 4.536054 -1.628424 -4.197427
  H 2.708502 -0.292588 -3.131652
  H 2.954563 -1.172333 -1.619993
  H 2.136157 -2.431104 -4.278134
  H 1.070770 -2.132822 -2.905267
  H 2.375246 -3.306090 -2.768373
  H 7.430353 -0.262693 -2.874273
 29
 39.254191
  H 2.527413 1.538451 -0.174758
  C 3.383016 0.894790 0.055237
  C 3.341191 0.332399 1.466101
  C 2.152595 0.871352 2.265677
  C 2.122621 0.272182 3.664405
  C 4.293313 0.640800 -0.821386
  C 5.267932 0.606945 -1.858609
  C 5.512765 -0.586933 -2.683448
  C 4.492313 -1.549614 -3.131446
  C 3.049828 -1.314849 -2.695106
  C 2.144302 -2.406916 -3.262371
  O 6.689881 -0.789662 -3.180759
  H 4.276642 0.584289 1.978286
  H 3.280390 -0.760639 1.410493
  H 1.215554 0.625882 1.751561
  H 2.222672 1.963522 2.344860
  H 2.035882 -0.814988 3.618589
  H 1.270221 0.658266 4.227722
  H 3.035796 0.521992 4.212554
  H 4.774730 1.307774 -2.577536
  H 6.192733 1.083799 -1.527441
  H 4.813883 -2.549981 -2.802314
  H 4.542537 -1.593191 -4.229170
  H 2.697947 -0.347459 -3.054829
  H 2.977919 -1.327552 -1.608045
  H 2.179673 -2.417126 -4.354989
  H 1.113083 -2.239252 -2.960676
  H 2.445823 -3.389065 -2.902255
  H 7.384298 -0.176500 -2.885779
 29
 38.474968
  H 2.524360 1.416338 -0.217555
  C 3.406568 0.836645 0.058434
  C 3.356116 0.323772 1.484141
  C 2.133529 0.839493 2.237035
  C 2.106129 0.303518 3.664320
  C 4.354388 0.622954 -0.776179
  C 5.281984 0.617282 -1.861475
  C 5.515355 -0.582503 -2.689577
  C 4.479386 -1.537051 -3.135640
  C 3.050095 -1.320919 -2.655119
  C 2.129205 -2.376503 -3.257918
  O 6.693475 -0.784886 -3.212022
  H 4.264878 0.627544 2.007028
  H 3.338429 -0.768147 1.463968
  H 1.222475 0.527501 1.721270
  H 2.150324 1.931115 2.265782
  H 2.066842 -0.783882 3.667866
  H 1.232897 0.675949 4.194838
  H 2.993619 0.615439 4.211281
  H 4.823109 1.304065 -2.599055
  H 6.221106 1.077244 -1.541498
  H 4.811324 -2.541252 -2.848375
  H 4.497909 -1.549061 -4.231786
  H 2.694509 -0.334896 -2.952730
  H 3.003624 -1.390758 -1.571145
  H 2.136369 -2.326311 -4.344325
  H 1.107520 -2.224523 -2.921046
  H 2.436523 -3.376237 -2.960944
  H 7.404907 -0.183214 -2.915006
