 20
 0.000000
  C 0.980941 0.138916 0.382004
  C 2.451817 0.140851 0.381635
  C 3.228883 0.606128 1.553859
  C 2.440910 1.086733 2.765353
  H 3.128335 1.396804 3.546298
  C 3.093629 -0.317254 -0.769359
  C 4.478215 -0.382160 -0.932730
  C 5.139465 -0.841208 -2.051646
  H 4.688089 -1.220499 -2.959306
  O 6.440557 -0.880548 -2.127603
  H 0.546758 0.499353 1.306141
  H 0.613304 -0.870652 0.189829
  H 0.610737 0.753603 -0.438333
  H 3.888579 1.417464 1.226674
  H 3.889011 -0.208460 1.871801
  H 1.811342 0.295825 3.166254
  H 1.810890 1.936977 2.514844
  H 2.470324 -0.647674 -1.588445
  H 5.097673 -0.046788 -0.110947
  H 6.903918 -0.548537 -1.332263
 20
 -0.838666
  C 1.020888 0.165746 0.324759
  C 2.488083 0.113187 0.427668
  C 3.209473 0.559488 1.639604
  C 2.369729 1.101562 2.787218
  H 3.022501 1.382869 3.609776
  C 3.178699 -0.379826 -0.675517
  C 4.564227 -0.385075 -0.854902
  C 5.113800 -0.829908 -2.037486
  H 4.476487 -1.231225 -2.818670
  O 6.367851 -0.813339 -2.367637
  H 0.551478 0.674479 1.155871
  H 0.620784 -0.848486 0.264757
  H 0.738365 0.650141 -0.611048
  H 3.940124 1.321442 1.347360
  H 3.803210 -0.285555 2.006974
  H 1.672764 0.354484 3.158205
  H 1.813087 1.986762 2.489639
  H 2.582976 -0.761714 -1.495366
  H 5.211522 0.005351 -0.082886
  H 6.972079 -0.472178 -1.676682
 20
 1.023107
  C 1.064346 0.143251 0.305778
  C 2.512218 -0.018282 0.506198
  C 3.200643 0.451084 1.726763
  C 2.363708 1.216888 2.741434
  H 2.993150 1.516449 3.575271
  C 3.213328 -0.579965 -0.558663
  C 4.579660 -0.456750 -0.819012
  C 5.069859 -0.788821 -2.063344
  H 4.424742 -1.247750 -2.804039
  O 6.276577 -0.589278 -2.497051
  H 0.541320 0.515549 1.177014
  H 0.612916 -0.791258 -0.028198
  H 0.933809 0.848708 -0.517179
  H 4.059915 1.065958 1.439775
  H 3.632168 -0.430661 2.216523
  H 1.558679 0.605613 3.141830
  H 1.938548 2.115475 2.302945
  H 2.622233 -1.056789 -1.329744
  H 5.235558 -0.003094 -0.090273
  H 6.890480 -0.204727 -1.838802
 20
 5.817258
  C 1.153585 0.131422 0.245428
  C 2.557242 -0.145523 0.595846
  C 3.181023 0.343222 1.840047
  C 2.367826 1.316573 2.681984
  H 2.945398 1.609123 3.555092
  C 3.288106 -0.796645 -0.396510
  C 4.607629 -0.521323 -0.764747
  C 4.982599 -0.740462 -2.069044
  H 4.330930 -1.291050 -2.739933
  O 6.068619 -0.327542 -2.651978
  H 0.583720 0.585780 1.045878
  H 0.648514 -0.761181 -0.120245
  H 1.202893 0.822338 -0.602198
  H 4.154032 0.786703 1.612758
  H 3.414376 -0.542288 2.444924
  H 1.444242 0.867012 3.037437
  H 2.127897 2.215143 2.119739
  H 2.719183 -1.396637 -1.096839
  H 5.258384 0.026216 -0.098204
  H 6.699935 0.130837 -2.061977
 20
 12.374043
  C 1.268635 0.121337 0.167353
  C 2.609473 -0.227419 0.668053
  C 3.169666 0.299350 1.924388
  C 2.362662 1.373199 2.641543
  H 2.890183 1.682159 3.540454
  C 3.368644 -0.956944 -0.251328
  C 4.634388 -0.579127 -0.717911
  C 4.863650 -0.692484 -2.065481
  H 4.203143 -1.285160 -2.687131
  O 5.826839 -0.136429 -2.744213
  H 0.663283 0.673791 0.875307
  H 0.731167 -0.752245 -0.196577
  H 1.474612 0.741277 -0.711852
  H 4.188798 0.655700 1.751805
  H 3.290917 -0.562294 2.593590
  H 1.386030 1.005382 2.945669
  H 2.228577 2.248614 2.011329
  H 2.821044 -1.643389 -0.887302
  H 5.296182 0.003048 -0.093096
  H 6.479856 0.345529 -2.199407
 20
 18.329846
  C 1.380499 0.183101 0.088096
  C 2.659628 -0.225085 0.692141
  C 3.183513 0.322533 1.954212
  C 2.311183 1.341728 2.675637
  H 2.795409 1.642576 3.601501
  C 3.420737 -1.029577 -0.166118
  C 4.659913 -0.640762 -0.696408
  C 4.783851 -0.717142 -2.061033
  H 4.103698 -1.328335 -2.642287
  O 5.682593 -0.126069 -2.797553
  H 0.766695 0.806131 0.728210
  H 0.811117 -0.668817 -0.282270
  H 1.698671 0.745764 -0.796720
  H 4.179844 0.741565 1.785168
  H 3.359650 -0.535932 2.615757
  H 1.341345 0.924045 2.933337
  H 2.162483 2.233052 2.069111
  H 2.868955 -1.750894 -0.757037
  H 5.322892 -0.018160 -0.115197
  H 6.313442 0.426179 -2.295906
 20
 27.559605
  C 1.538410 0.168607 -0.001043
  C 2.714068 -0.303488 0.755114
  C 3.136042 0.210173 2.063016
  C 2.348830 1.383625 2.629467
  H 2.726672 1.631028 3.617874
  C 3.518964 -1.131901 -0.049078
  C 4.671053 -0.621064 -0.678327
  C 4.632508 -0.633536 -2.042872
  H 3.971142 -1.302339 -2.577466
  O 5.403173 0.052860 -2.851593
  H 0.955173 0.917617 0.517780
  H 0.903383 -0.646797 -0.346864
  H 1.996471 0.583868 -0.916613
  H 4.203695 0.459358 2.022301
  H 3.084947 -0.635165 2.761235
  H 1.294531 1.142687 2.731098
  H 2.451116 2.264027 2.001549
  H 2.987486 -1.889975 -0.618683
  H 5.294924 0.083159 -0.147925
  H 6.063640 0.607387 -2.396740
 20
 36.881206
  C 1.576976 0.107266 -0.029162
  C 2.691639 -0.409283 0.769552
  C 3.165235 0.188290 2.021262
  C 2.439942 1.439737 2.500532
  H 2.875063 1.775695 3.440546
  C 3.479194 -1.284817 -0.012022
  C 4.644156 -0.761815 -0.639022
  C 4.489668 -0.462184 -1.960807
  H 3.834128 -1.046159 -2.592577
  O 5.250483 0.349504 -2.664763
  H 0.954596 0.836637 0.468215
  H 0.988766 -0.665884 -0.525497
  H 2.135143 0.552331 -0.882587
  H 4.241520 0.368275 1.954467
  H 3.062123 -0.595512 2.780515
  H 1.386960 1.246218 2.676059
  H 2.535148 2.245960 1.779949
  H 2.969343 -2.088719 -0.530664
  H 5.372844 -0.238941 -0.032571
  H 5.943166 0.791339 -2.141868
 20
 49.080954
  C 1.770602 0.208229 -0.135306
  C 2.755785 -0.380040 0.772828
  C 3.192269 0.213510 2.038706
  C 2.356199 1.370688 2.568591
  H 2.761737 1.707773 3.519206
  C 3.525161 -1.349183 0.072059
  C 4.648917 -0.805607 -0.626158
  C 4.358449 -0.488807 -1.919237
  H 3.714111 -1.113519 -2.521343
  O 5.067588 0.327625 -2.687481
  H 1.259827 1.080223 0.242348
  H 1.114442 -0.483221 -0.660820
  H 2.463521 0.461882 -0.990865
  H 4.251525 0.487088 1.972568
  H 3.159561 -0.604697 2.770715
  H 1.327154 1.068319 2.733108
  H 2.369295 2.213465 1.883844
  H 2.944739 -2.067537 -0.502152
  H 5.461001 -0.341441 -0.085681
  H 5.732857 0.840309 -2.198589
 20
 63.896574
  C 1.805924 0.119390 -0.143440
  C 2.744646 -0.459489 0.783381
  C 3.130090 0.086958 2.079342
  C 2.510516 1.435943 2.443849
  H 2.896435 1.762703 3.418286
  C 3.545381 -1.429253 0.070934
  C 4.619730 -0.787020 -0.641221
  C 4.238255 -0.339181 -1.861767
  H 3.612151 -0.927239 -2.524351
  O 4.898912 0.586553 -2.562000
  H 1.184740 0.933654 0.191400
  H 1.305626 -0.550888 -0.848236
  H 2.587333 0.393736 -0.983859
  H 4.226916 0.174040 2.083621
  H 2.907901 -0.655915 2.847631
  H 1.435308 1.371612 2.522274
  H 2.760465 2.187435 1.713522
  H 3.065676 -2.276254 -0.376555
  H 5.385882 -0.268545 -0.078436
  H 5.645973 0.967345 -2.073585
 20
 81.803410
  C 1.868327 0.140997 -0.099529
  C 2.736466 -0.421669 0.790127
  C 3.155595 0.109663 2.105349
  C 2.471323 1.403189 2.524860
  H 2.849844 1.714885 3.495109
  C 3.539767 -1.414442 0.079986
  C 4.587121 -0.816173 -0.665973
  C 4.160427 -0.322861 -1.911743
  H 3.553870 -0.950909 -2.562898
  O 4.896624 0.524341 -2.662711
  H 1.333176 1.029563 0.191638
  H 1.385647 -0.433835 -0.875196
  H 3.049095 0.321933 -1.298596
  H 4.243746 0.230853 2.107024
  H 2.943003 -0.666816 2.848138
  H 1.396839 1.269894 2.614625
  H 2.670867 2.198947 1.812658
  H 3.001933 -2.247465 -0.358555
  H 5.395309 -0.320755 -0.141417
  H 5.623697 0.939734 -2.171138
 20
 73.456825
  C 1.764581 0.135789 -0.021103
  C 2.691812 -0.411044 0.803962
  C 3.184388 0.107754 2.100712
  C 2.487951 1.365798 2.584400
  H 2.908657 1.676307 3.524436
  C 3.467890 -1.331921 0.026479
  C 4.536742 -0.756744 -0.668433
  C 4.210854 -0.325049 -1.983388
  H 3.681922 -1.009189 -2.612169
  O 5.094044 0.423282 -2.751865
  H 1.253477 1.031808 0.286727
  H 1.302920 -0.397734 -0.863852
  H 3.305733 0.331131 -1.592637
  H 4.251307 0.282730 2.032541
  H 3.054828 -0.681822 2.841045
  H 1.413416 1.176775 2.752524
  H 2.607427 2.179506 1.880266
  H 2.945656 -2.159032 -0.436831
  H 5.341245 -0.244282 -0.123173
  H 5.795056 0.839888 -2.247505
 20
 59.933981
  C 1.646264 0.173638 0.108246
  C 2.691333 -0.309940 0.801617
  C 3.226462 0.171247 2.105190
  C 2.429690 1.309720 2.726612
  H 2.918576 1.639596 3.640270
  C 3.425273 -1.206722 -0.072154
  C 4.526989 -0.710886 -0.757607
  C 4.342342 -0.351940 -2.163058
  H 3.862902 -1.118769 -2.780760
  O 5.347569 0.232884 -2.888629
  H 1.096651 1.030978 0.458380
  H 1.235585 -0.332395 -0.746973
  H 3.513521 0.396114 -1.963602
  H 4.271519 0.468516 1.996307
  H 3.218847 -0.687939 2.780966
  H 1.424960 0.986318 2.984774
  H 2.367641 2.160314 2.053968
  H 2.854742 -2.008563 -0.529045
  H 5.345697 -0.252364 -0.211724
  H 6.065455 0.575122 -2.336149
 20
 50.211220
  C 1.519953 0.154463 0.215210
  C 2.645369 -0.309069 0.799223
  C 3.260615 0.174015 2.066794
  C 2.476685 1.267862 2.778218
  H 2.969050 1.517722 3.714505
  C 3.375447 -1.081293 -0.182461
  C 4.493228 -0.574593 -0.795808
  C 4.478979 -0.405457 -2.249107
  H 4.055894 -1.250295 -2.802830
  O 5.583972 0.049914 -2.927669
  H 0.965056 0.979127 0.632375
  H 1.092227 -0.317822 -0.650117
  H 3.673458 0.387945 -2.254906
  H 4.284980 0.506226 1.887051
  H 3.334149 -0.702591 2.720166
  H 1.466960 0.937373 3.007793
  H 2.426876 2.169253 2.173740
  H 2.814838 -1.860967 -0.692363
  H 5.220067 -0.001419 -0.228198
  H 6.243645 0.448738 -2.337614
 20
 47.233130
  C 1.501326 0.200018 0.254261
  C 2.650220 -0.266299 0.812310
  C 3.251563 0.169916 2.098402
  C 2.465943 1.239866 2.837907
  H 2.938959 1.440928 3.798095
  C 3.361880 -1.052685 -0.193366
  C 4.493808 -0.545800 -0.810757
  C 4.536056 -0.516949 -2.286443
  H 4.256629 -1.452434 -2.772407
  O 5.644355 -0.023844 -2.942890
  H 0.987210 1.061346 0.653331
  H 1.092700 -0.233058 -0.636511
  H 3.684107 0.183903 -2.447868
  H 4.279508 0.505148 1.945349
  H 3.314736 -0.724242 2.723828
  H 1.447008 0.916117 3.026356
  H 2.444270 2.167477 2.275634
  H 2.755118 -1.738811 -0.763049
  H 5.165096 0.106400 -0.269455
  H 6.110957 0.652134 -2.428727
