 14
 0.000000
  H 1.406912 0.128589 0.367917
  C 2.489230 0.133588 0.382399
  C 3.142028 0.620664 1.595982
  H 2.415465 0.922400 2.345998
  C 3.138379 -0.321639 -0.749869
  C 4.527998 -0.379982 -0.895465
  C 5.122317 -0.844910 -2.054166
  H 4.512648 -1.180456 -2.888879
  O 6.390919 -0.929432 -2.266508
  H 3.800498 1.463361 1.371990
  H 3.799286 -0.143752 2.017325
  H 2.537310 -0.656404 -1.584561
  H 5.168080 -0.055503 -0.086139
  H 6.957928 -0.628766 -1.522491
 14
 18.155125
  H 1.421652 0.141882 0.408212
  C 2.500092 0.132875 0.383124
  C 3.225540 0.605859 1.556570
  H 2.550777 0.921802 2.345076
  C 3.097421 -0.337451 -0.788877
  C 4.534948 -0.422141 -0.999801
  C 5.070081 -0.869108 -2.118091
  H 4.616192 -1.231658 -3.026925
  O 6.305768 -0.825948 -2.008587
  H 3.883984 1.436685 1.294570
  H 3.887040 -0.172896 1.941747
  H 2.458765 -0.658799 -1.590031
  H 5.147733 -0.094149 -0.177167
  H 6.686755 -0.492112 -1.168961
 14
 67.335343
  H 1.410593 0.161336 0.459531
  C 2.493011 0.143621 0.409813
  C 3.265228 0.606009 1.556220
  H 2.618187 0.930177 2.367485
  C 3.069699 -0.353686 -0.829695
  C 4.592327 -0.454254 -1.079829
  C 5.058307 -0.898589 -2.192714
  H 4.726048 -1.274516 -3.136577
  O 6.241509 -0.769438 -1.867852
  H 3.921440 1.430857 1.273356
  H 3.925938 -0.181882 1.921111
  H 2.408689 -0.669521 -1.616206
  H 5.119228 -0.108965 -0.211541
  H 6.528673 -0.424976 -0.998922
 14
 126.878768
  H 1.414543 0.115328 0.533196
  C 2.487660 0.133861 0.392185
  C 3.292128 0.620168 1.541461
  H 2.652473 0.900563 2.376074
  C 2.905824 -0.316537 -0.807498
  C 4.736223 -0.467438 -1.116599
  C 5.028544 -0.934925 -2.246525
  H 4.758905 -1.303164 -3.208823
  O 6.255862 -0.726677 -1.805942
  H 3.880680 1.487256 1.255341
  H 3.966285 -0.158550 1.888049
  H 2.339425 -0.626566 -1.655949
  H 5.038049 -0.122612 -0.148182
  H 6.619125 -0.464534 -0.942264
 14
 151.949282
  H 1.244382 0.265139 0.662262
  C 2.310791 0.162741 0.456529
  C 3.211504 0.610638 1.569549
  H 2.633927 0.967470 2.407586
  C 2.640721 -0.327325 -0.713365
  C 5.020110 -0.475438 -1.159860
  C 5.134058 -0.940095 -2.323465
  H 4.796352 -1.302207 -3.261926
  O 6.460820 -0.743450 -1.909506
  H 3.857792 1.419820 1.233987
  H 3.827292 -0.213203 1.909144
  H 2.160618 -0.691389 -1.578940
  H 5.164756 -0.095402 -0.160161
  H 6.910550 -0.508806 -1.074435
 14
 154.160046
  H 1.036597 0.377292 0.823422
  C 2.087226 0.200770 0.561548
  C 3.059648 0.626738 1.627854
  H 2.536895 1.035881 2.485431
  C 2.375672 -0.322107 -0.589027
  C 5.320456 -0.454117 -1.235556
  C 5.347681 -0.962433 -2.389149
  H 4.984697 -1.336027 -3.321617
  O 6.722469 -0.733825 -2.100743
  H 3.726051 1.396817 1.240373
  H 3.652624 -0.222885 1.955660
  H 1.889356 -0.736913 -1.437374
  H 5.343835 -0.012950 -0.268907
  H 7.263939 -0.731430 -1.278980
 14
 149.837970
  H 0.979185 0.388193 0.889530
  C 2.015513 0.210973 0.597526
  C 3.018527 0.627037 1.647712
  H 2.510412 1.020132 2.528491
  C 2.289979 -0.295831 -0.561330
  C 5.498553 -0.412337 -1.302397
  C 5.368601 -1.007746 -2.409530
  H 5.005514 -1.445237 -3.317388
  O 6.785457 -0.615475 -2.101118
  H 3.673547 1.406255 1.259843
  H 3.619561 -0.229510 1.956438
  H 1.765520 -0.676060 -1.410381
  H 5.351895 -0.032243 -0.321267
  H 7.394027 -0.830416 -1.345434
 14
 145.807644
  H 0.880553 0.399086 0.962899
  C 1.914002 0.229761 0.658151
  C 2.928558 0.641316 1.701021
  H 2.431830 1.019449 2.590789
  C 2.174113 -0.267799 -0.508263
  C 5.666381 -0.401370 -1.373741
  C 5.468199 -1.045862 -2.452161
  H 5.058799 -1.507044 -3.326407
  O 6.882902 -0.585685 -2.163562
  H 3.575519 1.420460 1.312817
  H 3.534938 -0.212286 1.987316
  H 1.618299 -0.642095 -1.344558
  H 5.522040 -0.050491 -0.386399
  H 7.525192 -0.947934 -1.505102
 14
 136.645630
  H 0.841919 0.281569 0.985707
  C 1.891995 0.195749 0.672518
  C 2.871958 0.685743 1.709024
  H 2.350717 1.021872 2.599484
  C 2.187701 -0.285002 -0.491172
  C 5.676517 -0.396115 -1.288522
  C 5.495094 -0.986436 -2.400022
  H 5.067314 -1.389819 -3.285713
  O 6.886367 -0.545736 -2.139409
  H 3.450578 1.520505 1.315146
  H 3.552098 -0.113276 1.991982
  H 1.682617 -0.673920 -1.337821
  H 5.600353 -0.078305 -0.275502
  H 7.499991 -1.268673 -1.849075
