 26
 0.000000
  H 1.461984 0.167373 0.470469
  C 2.540544 0.148357 0.422216
  C 3.303481 0.617079 1.586818
  C 2.455147 1.089944 2.763136
  C 3.332226 1.555995 3.921072
  C 3.096837 -0.323309 -0.751516
  C 4.471237 -0.420468 -0.994159
  C 5.130004 -0.878115 -2.136209
  C 4.600362 -1.394399 -3.425137
  C 3.104841 -1.496188 -3.680683
  H 2.942907 -1.895003 -4.676295
  O 6.445480 -0.881911 -2.145739
  H 3.964206 1.435443 1.276250
  H 3.964830 -0.187959 1.929239
  H 1.812724 0.278386 3.109565
  H 1.812186 1.915009 2.451293
  H 3.967236 0.748623 4.278794
  H 2.715181 1.889785 4.751528
  H 3.966639 2.386564 3.619942
  H 2.410020 -0.632235 -1.520186
  H 5.116715 -0.096073 -0.185877
  H 5.051355 -2.384199 -3.560584
  H 5.052100 -0.772419 -4.206555
  H 2.630555 -0.519248 -3.631415
  H 2.629869 -2.168533 -2.970666
  H 6.858262 -0.553379 -1.323820
 26
 13.416176
  H 1.434329 0.203188 0.558537
  C 2.510145 0.183585 0.509581
  C 3.277869 0.646819 1.661196
  C 2.428566 1.119948 2.837487
  C 3.305195 1.585716 3.995458
  C 3.110974 -0.331341 -0.771689
  C 4.462318 -0.420789 -0.994769
  C 5.182391 -0.923946 -2.250649
  C 4.631422 -1.433922 -3.523595
  C 3.129024 -1.521239 -3.742427
  H 2.941046 -1.919016 -4.735359
  O 6.483565 -0.923323 -2.249905
  H 3.940903 1.463759 1.348447
  H 3.941008 -0.159104 2.001123
  H 1.785543 0.308138 3.182478
  H 1.785585 1.944581 2.524283
  H 3.939904 0.778039 4.353059
  H 2.688230 1.919714 4.825893
  H 3.939887 2.416079 3.694165
  H 2.419943 -0.637700 -1.534554
  H 5.112250 -0.099229 -0.193172
  H 5.073249 -2.427002 -3.667232
  H 5.073754 -0.815167 -4.313269
  H 2.664603 -0.540679 -3.683353
  H 2.664168 -2.189546 -3.022746
  H 6.894829 -0.593693 -1.426088
 26
 39.989082
  H 1.376192 0.225678 0.606483
  C 2.450449 0.211742 0.576579
  C 3.251692 0.659998 1.695668
  C 2.421348 1.137796 2.879607
  C 3.313381 1.597726 4.028396
  C 3.082046 -0.342523 -0.801854
  C 4.420943 -0.408563 -0.964334
  C 5.233268 -0.956804 -2.335306
  C 4.661296 -1.461407 -3.592411
  C 3.159575 -1.535063 -3.771587
  H 2.947354 -1.932767 -4.762404
  O 6.515455 -0.924014 -2.258925
  H 3.917550 1.465114 1.374451
  H 3.914239 -0.145849 2.021933
  H 1.776854 0.328835 3.225904
  H 1.780491 1.963889 2.568538
  H 3.946605 0.784869 4.376948
  H 2.709523 1.935909 4.866193
  H 3.950176 2.423179 3.718185
  H 2.354651 -0.628820 -1.518710
  H 5.112166 -0.103678 -0.201418
  H 5.097647 -2.454690 -3.747369
  H 5.095861 -0.849658 -4.391081
  H 2.706167 -0.551259 -3.707014
  H 2.708017 -2.202426 -3.044518
  H 6.893707 -0.591300 -1.429306
 26
 72.172998
  H 1.339870 0.234048 0.626275
  C 2.407525 0.231302 0.624985
  C 3.224220 0.674327 1.731994
  C 2.398365 1.155158 2.922737
  C 3.295344 1.611820 4.064127
  C 3.092897 -0.352424 -0.827435
  C 4.404242 -0.396472 -0.934592
  C 5.304967 -0.997271 -2.436980
  C 4.692040 -1.491729 -3.667736
  C 3.172649 -1.532428 -3.764183
  H 2.892543 -1.922684 -4.735108
  O 6.573576 -0.952399 -2.331138
  H 3.895250 1.482535 1.403197
  H 3.891321 -0.139508 2.055049
  H 1.753598 0.345482 3.267699
  H 1.757915 1.981131 2.610071
  H 3.928225 0.796694 4.408716
  H 2.695818 1.951663 4.905540
  H 3.932451 2.435866 3.749578
  H 2.353711 -0.634642 -1.534727
  H 5.114786 -0.099025 -0.189880
  H 5.104843 -2.496863 -3.841228
  H 5.103034 -0.884632 -4.488400
  H 2.747465 -0.538908 -3.670336
  H 2.749626 -2.185961 -3.008796
  H 6.944896 -0.615918 -1.492323
 26
 103.131162
  H 1.279769 0.257484 0.686004
  C 2.341938 0.260355 0.698861
  C 3.184214 0.696730 1.789825
  C 2.382710 1.185670 2.999346
  C 3.304757 1.636332 4.123849
  C 3.046162 -0.342590 -0.801783
  C 4.339377 -0.374526 -0.878935
  C 5.348366 -1.040233 -2.544287
  C 4.741883 -1.528901 -3.761033
  C 3.218350 -1.567210 -3.851774
  H 2.931431 -1.956756 -4.821129
  O 6.599353 -0.982694 -2.406462
  H 3.859033 1.498555 1.452342
  H 3.855530 -0.118176 2.102480
  H 1.737041 0.382732 3.358547
  H 1.741598 2.016512 2.700639
  H 3.937629 0.816829 4.456862
  H 2.723186 1.980935 4.975563
  H 3.941794 2.455089 3.796828
  H 2.284276 -0.619991 -1.497154
  H 5.074381 -0.087313 -0.159419
  H 5.153682 -2.536750 -3.934380
  H 5.152016 -0.919729 -4.583255
  H 2.797257 -0.571410 -3.754764
  H 2.799402 -2.220173 -3.092704
  H 6.955672 -0.640782 -1.553127
 26
 129.355297
  H 1.245403 0.234444 0.750183
  C 2.319304 0.254907 0.778097
  C 3.164057 0.719198 1.867128
  C 2.347726 1.213334 3.066447
  C 3.262109 1.695758 4.190070
  C 3.047516 -0.366082 -0.737625
  C 4.323220 -0.382291 -0.801468
  C 5.414549 -1.105778 -2.680485
  C 4.768103 -1.561504 -3.888146
  C 3.255211 -1.556670 -3.909976
  H 2.909544 -1.922567 -4.877854
  O 6.665894 -1.064640 -2.559937
  H 3.826264 1.526163 1.522907
  H 3.842988 -0.080328 2.195400
  H 1.712524 0.404014 3.435401
  H 1.694273 2.031279 2.752094
  H 3.906290 0.891160 4.537423
  H 2.672118 2.043871 5.034209
  H 3.887930 2.519031 3.853252
  H 2.285427 -0.651982 -1.429876
  H 5.081475 -0.105848 -0.108786
  H 5.144759 -2.569567 -4.091671
  H 5.158962 -0.951974 -4.709755
  H 2.869570 -0.550922 -3.773114
  H 2.855061 -2.210199 -3.140499
  H 7.036332 -0.747125 -1.706972
 26
 132.786681
  H 1.425655 0.055442 0.871249
  C 2.497133 0.142845 0.893339
  C 3.182382 0.761827 2.023709
  C 2.240847 1.229637 3.122802
  C 3.003552 1.873800 4.270122
  C 3.163957 -0.389775 -0.285945
  C 4.489509 -0.424977 -0.446457
  C 5.535255 -1.292425 -2.995140
  C 4.745436 -1.601481 -4.181346
  C 3.246604 -1.417653 -4.023978
  H 2.749776 -1.677327 -4.953936
  O 6.808269 -1.387986 -3.031803
  H 3.778087 1.610495 1.669973
  H 3.906769 0.060399 2.443926
  H 1.669341 0.381368 3.498628
  H 1.533694 1.949443 2.711033
  H 3.703140 1.165942 4.716432
  H 2.316970 2.203328 5.045156
  H 3.560616 2.738320 3.924773
  H 2.442261 -0.741157 -1.012414
  H 5.371962 -0.202700 0.096160
  H 4.972296 -2.635778 -4.464839
  H 5.127094 -0.992388 -5.010433
  H 3.012731 -0.387726 -3.787246
  H 2.863846 -2.065538 -3.238687
  H 7.295168 -1.196684 -2.197574
 26
 136.864533
  H 1.427683 0.131219 0.938772
  C 2.503514 0.181299 0.970804
  C 3.152494 0.791767 2.128204
  C 2.184566 1.281558 3.201799
  C 2.927794 1.911642 4.369505
  C 3.178885 -0.345092 -0.155199
  C 4.498274 -0.385884 -0.326209
  C 5.591517 -1.341796 -3.166921
  C 4.761275 -1.648500 -4.335694
  C 3.272508 -1.468989 -4.105328
  H 2.731968 -1.722086 -5.005608
  O 6.862623 -1.441114 -3.272652
  H 3.783869 1.633938 1.795480
  H 3.860964 0.079035 2.569909
  H 1.584243 0.446956 3.563020
  H 1.502679 2.014957 2.770928
  H 3.603422 1.187039 4.839833
  H 2.225196 2.257856 5.125937
  H 3.510642 2.761481 4.041222
  H 2.511354 -0.675974 -0.936997
  H 5.390967 -0.181777 0.202843
  H 4.973305 -2.681562 -4.631200
  H 5.099889 -1.033660 -5.179973
  H 3.049670 -0.445365 -3.851591
  H 2.929077 -2.123798 -3.302364
  H 7.374848 -1.259029 -2.457752
 26
 138.769485
  H 1.395726 0.151646 1.017421
  C 2.483080 0.198798 1.053854
  C 3.119633 0.826770 2.201044
  C 2.147867 1.304004 3.260151
  C 2.879868 1.943711 4.414101
  C 3.172093 -0.317446 -0.053549
  C 4.481948 -0.343225 -0.207944
  C 5.647499 -1.397769 -3.294086
  C 4.774526 -1.684176 -4.438558
  C 3.300613 -1.461552 -4.144350
  H 2.708375 -1.699171 -5.022681
  O 6.912051 -1.528635 -3.474080
  H 3.730905 1.665865 1.875406
  H 3.839368 0.130758 2.639730
  H 1.563457 0.467738 3.626198
  H 1.460810 2.023140 2.829914
  H 3.556670 1.238423 4.880460
  H 2.177420 2.280068 5.164230
  H 3.453035 2.802795 4.080516
  H 2.535817 -0.686923 -0.867122
  H 5.378028 -0.154054 0.348266
  H 4.949712 -2.724438 -4.738589
  H 5.094590 -1.075316 -5.291556
  H 3.118246 -0.425789 -3.877121
  H 2.977532 -2.100886 -3.329954
  H 7.459820 -1.334150 -2.682429
 26
 139.647207
  H 1.409294 0.151462 1.103740
  C 2.490104 0.178308 1.155639
  C 3.090908 0.849994 2.301298
  C 2.086887 1.353284 3.339965
  C 2.797558 2.039701 4.505024
  C 3.201585 -0.360745 0.071539
  C 4.519300 -0.379168 -0.099177
  C 5.712242 -1.450869 -3.458926
  C 4.781416 -1.698586 -4.579742
  C 3.316602 -1.456172 -4.220670
  H 2.685398 -1.664958 -5.077094
  O 6.964260 -1.600623 -3.701147
  H 3.704225 1.690864 1.967773
  H 3.814571 0.169503 2.769888
  H 1.498708 0.516742 3.721074
  H 1.397348 2.059502 2.873937
  H 3.474309 1.352117 5.007267
  H 2.073703 2.392492 5.237370
  H 3.371479 2.897899 4.159772
  H 2.595518 -0.729638 -0.747996
  H 5.407572 -0.232323 0.462910
  H 4.925251 -2.738894 -4.908152
  H 5.079367 -1.073477 -5.431213
  H 3.164260 -0.425229 -3.925878
  H 3.014979 -2.105251 -3.406748
  H 7.545972 -1.431617 -2.933066
 26
 139.830299
  H 1.397270 0.139267 1.182641
  C 2.480747 0.157459 1.252930
  C 3.064944 0.874559 2.391403
  C 2.049182 1.391335 3.393341
  C 2.735879 2.113880 4.544978
  C 3.204898 -0.401845 0.200642
  C 4.523461 -0.405703 0.030918
  C 5.767592 -1.489491 -3.606067
  C 4.785171 -1.695627 -4.689549
  C 3.337761 -1.434946 -4.257149
  H 2.661549 -1.611639 -5.090321
  O 7.003903 -1.652710 -3.900370
  H 3.673958 1.719293 2.050736
  H 3.789830 0.214012 2.882021
  H 1.463798 0.559090 3.789039
  H 1.360131 2.077169 2.897560
  H 3.412212 1.445323 5.075251
  H 1.997634 2.479033 5.257249
  H 3.307189 2.968917 4.182837
  H 2.617695 -0.773050 -0.631375
  H 5.397416 -0.291744 0.618954
  H 4.895530 -2.732413 -5.049722
  H 5.057589 -1.053172 -5.539659
  H 3.218516 -0.408119 -3.931924
  H 3.061672 -2.097335 -3.444221
  H 7.614259 -1.524328 -3.146141
 26
 139.318046
  H 1.371865 0.123298 1.264186
  C 2.451026 0.144390 1.341816
  C 3.036919 0.893183 2.441650
  C 2.007896 1.419045 3.455821
  C 2.693959 2.187664 4.589073
  C 3.182750 -0.431010 0.299775
  C 4.500341 -0.417910 0.144717
  C 5.809764 -1.532183 -3.744185
  C 4.784035 -1.690366 -4.776995
  C 3.380182 -1.397635 -4.280554
  H 2.669402 -1.540563 -5.077188
  O 7.035202 -1.715640 -4.067745
  H 3.624277 1.738240 2.067442
  H 3.784342 0.253159 2.941574
  H 1.443554 0.583663 3.879114
  H 1.297172 2.080352 2.951102
  H 3.384945 1.552190 5.122461
  H 1.958205 2.552358 5.299571
  H 3.242566 3.044898 4.202354
  H 2.592857 -0.822523 -0.523858
  H 5.358293 -0.337738 0.775082
  H 4.847869 -2.717438 -5.153725
  H 5.034988 -1.044350 -5.621819
  H 3.307094 -0.378624 -3.935820
  H 3.124855 -2.057481 -3.474224
  H 7.670003 -1.600976 -3.323842
 26
 139.021885
  H 1.356672 0.106836 1.349511
  C 2.433517 0.124690 1.444503
  C 3.006406 0.922711 2.530579
  C 1.974010 1.454629 3.510272
  C 2.638904 2.270303 4.619118
  C 3.177847 -0.480454 0.435834
  C 4.498340 -0.458724 0.286790
  C 5.857644 -1.564997 -3.877851
  C 4.787892 -1.672327 -4.874407
  C 3.403701 -1.357218 -4.314874
  H 2.645180 -1.467098 -5.102216
  O 7.061614 -1.766258 -4.238441
  H 3.583014 1.771042 2.126547
  H 3.754848 0.317203 3.055050
  H 1.423047 0.619493 3.956416
  H 1.253486 2.085979 2.980074
  H 3.344911 1.660925 5.179493
  H 1.890855 2.643694 5.315268
  H 3.174197 3.126788 4.205832
  H 2.599736 -0.875850 -0.394979
  H 5.327575 -0.414493 0.951485
  H 4.811835 -2.688556 -5.275612
  H 5.023073 -1.009448 -5.715546
  H 3.368558 -0.333762 -3.939346
  H 3.160411 -2.037015 -3.504806
  H 7.724305 -1.693803 -3.504313
 26
 138.756163
  H 1.338648 0.116915 1.431152
  C 2.411736 0.127812 1.539113
  C 2.974716 0.956406 2.608340
  C 1.930476 1.498171 3.577058
  C 2.580652 2.346542 4.667381
  C 3.166130 -0.506961 0.562442
  C 4.492485 -0.486654 0.426056
  C 5.894149 -1.602846 -4.009362
  C 4.783779 -1.655200 -4.961440
  C 3.435016 -1.317129 -4.346078
  H 2.654510 -1.389803 -5.098539
  O 7.081473 -1.821047 -4.411235
  H 3.537513 1.802632 2.183804
  H 3.728486 0.372715 3.146575
  H 1.390442 0.664824 4.041250
  H 1.201472 2.109099 3.030916
  H 3.291636 1.761857 5.240070
  H 1.827970 2.724213 5.352398
  H 3.103833 3.199293 4.236039
  H 2.598230 -0.907195 -0.276194
  H 5.297331 -0.475773 1.132796
  H 4.763313 -2.664440 -5.385220
  H 5.005359 -0.979164 -5.796831
  H 3.440692 -0.308362 -3.950727
  H 3.205712 -2.000932 -3.548852
  H 7.770442 -1.773222 -3.705440
