 23
 0.000000
  C 1.008625 0.112115 0.329575
  C 2.482097 0.125630 0.363707
  C 3.233806 0.601822 1.548832
  C 2.417393 1.081056 2.741696
  H 3.090306 1.399490 3.534612
  C 3.142280 -0.329631 -0.769842
  C 4.524634 -0.394304 -0.931043
  C 5.184600 -0.851117 -2.070277
  C 4.535399 -1.345190 -3.301706
  H 3.456240 -1.324701 -3.250863
  O 6.497213 -0.870954 -2.121163
  H 0.556333 0.478887 1.242164
  H 0.651986 -0.901489 0.140598
  H 0.652333 0.713477 -0.508113
  H 3.893250 1.416221 1.230025
  H 3.893288 -0.206705 1.882129
  H 1.787309 0.287827 3.136909
  H 1.787462 1.927430 2.478345
  H 2.518310 -0.658169 -1.587828
  H 5.148124 -0.065128 -0.110900
  H 4.880162 -2.359550 -3.501755
  H 4.880314 -0.750503 -4.147360
  H 6.947360 -0.548303 -1.317429
 23
 15.539347
  C 1.111464 0.065571 0.212748
  C 2.574567 0.120413 0.348218
  C 3.243890 0.610525 1.568834
  C 2.357536 1.068073 2.711545
  H 2.979961 1.399521 3.537943
  C 3.340355 -0.322003 -0.753421
  C 4.677331 -0.329762 -0.774266
  C 5.062041 -0.810067 -1.968462
  C 4.337466 -1.293902 -3.172778
  H 3.255859 -1.276968 -3.132098
  O 6.388349 -0.913327 -2.223919
  H 0.584962 0.417760 1.090272
  H 0.799104 -0.954602 -0.003540
  H 0.798579 0.652586 -0.648997
  H 3.904085 1.432695 1.282810
  H 3.904868 -0.180798 1.929910
  H 1.728422 0.260784 3.074229
  H 1.727497 1.901794 2.416611
  H 2.744867 -0.652481 -1.575464
  H 5.330922 -0.017346 0.000767
  H 4.674123 -2.313642 -3.377375
  H 4.674885 -0.699796 -4.026216
  H 6.938707 -0.625117 -1.502976
 23
 51.608179
  C 1.162027 0.045484 0.164921
  C 2.616954 0.127445 0.365571
  C 3.231241 0.630832 1.617508
  C 2.277925 1.075254 2.729250
  H 2.852711 1.419178 3.584991
  C 3.492266 -0.324022 -0.758932
  C 4.812481 -0.304268 -0.712644
  C 4.964914 -0.793190 -1.925920
  C 4.232865 -1.269479 -3.114455
  H 3.147763 -1.271693 -3.128042
  O 6.333859 -0.976955 -2.378647
  H 0.596070 0.387188 1.015824
  H 0.873714 -0.988611 -0.065421
  H 0.872069 0.631348 -0.717143
  H 3.895331 1.470939 1.362052
  H 3.897883 -0.151069 2.013011
  H 1.648951 0.255048 3.062177
  H 1.646429 1.896635 2.404007
  H 2.871861 -0.654992 -1.581408
  H 5.528043 -0.003814 0.034882
  H 4.584913 -2.277446 -3.307206
  H 4.589704 -0.677965 -3.951040
  H 6.977325 -0.711527 -1.712350
 23
 97.220890
  C 1.189216 0.030643 0.129323
  C 2.633784 0.125937 0.361403
  C 3.228664 0.628243 1.609587
  C 2.270890 1.066269 2.709288
  H 2.838108 1.412038 3.568193
  C 3.555905 -0.329566 -0.774733
  C 4.876789 -0.274879 -0.647005
  C 4.858781 -0.765102 -1.857785
  C 4.166729 -1.253435 -3.075954
  H 3.077025 -1.262789 -3.114891
  O 6.319112 -0.991541 -2.408521
  H 0.604822 0.368116 0.969299
  H 0.912886 -1.003198 -0.103750
  H 0.910721 0.613774 -0.754841
  H 3.888886 1.469226 1.358907
  H 3.894043 -0.149219 2.008082
  H 1.642839 0.243897 3.036217
  H 1.638055 1.883744 2.379233
  H 2.904506 -0.645549 -1.560701
  H 5.605857 0.018818 0.081395
  H 4.534063 -2.266200 -3.261164
  H 4.543204 -0.657339 -3.911384
  H 6.976015 -0.732351 -1.750679
 23
 138.370991
  C 1.184600 0.024265 0.112318
  C 2.629786 0.119834 0.345830
  C 3.236464 0.620276 1.590844
  C 2.276686 1.053634 2.680671
  H 2.839303 1.399154 3.540197
  C 3.538398 -0.329107 -0.776411
  C 4.893185 -0.250219 -0.594443
  C 4.721726 -0.738390 -1.795531
  C 4.142096 -1.238598 -3.036396
  H 3.070576 -1.267889 -3.126974
  O 6.386934 -1.020908 -2.479019
  H 0.606532 0.363998 0.958798
  H 0.904186 -1.001412 -0.114646
  H 0.902227 0.606885 -0.761110
  H 3.891290 1.465516 1.356779
  H 3.896872 -0.149150 2.003242
  H 1.650218 0.231519 3.003265
  H 1.645413 1.868313 2.348353
  H 2.841804 -0.626851 -1.520479
  H 5.639598 0.034185 0.110473
  H 4.541935 -2.242559 -3.200957
  H 4.553191 -0.639371 -3.853357
  H 7.044018 -0.762067 -1.822214
 23
 141.480398
  C 1.042860 0.094710 0.215083
  C 2.521991 0.123338 0.327372
  C 3.209797 0.598879 1.559108
  C 2.316528 1.058348 2.703444
  H 2.937981 1.376730 3.536251
  C 3.259887 -0.316258 -0.768172
  C 4.764116 -0.316412 -0.634380
  C 4.437012 -0.718061 -1.794250
  C 4.231092 -1.290667 -3.080174
  H 3.200447 -1.448980 -3.365081
  O 6.921231 -0.995105 -2.616475
  H 0.564264 0.454958 1.116408
  H 0.687223 -0.917516 0.023900
  H 0.707613 0.708897 -0.620407
  H 3.879151 1.422576 1.289604
  H 3.853002 -0.205680 1.931486
  H 1.676786 0.254289 3.057684
  H 1.697661 1.903104 2.412173
  H 2.522752 -0.609488 -1.513978
  H 5.493647 -0.051651 0.088615
  H 4.778167 -2.235482 -3.112718
  H 4.726869 -0.663925 -3.824156
  H 7.582510 -0.713486 -1.979644
 23
 142.394823
  C 0.992850 0.117300 0.232826
  C 2.476837 0.126981 0.339369
  C 3.184300 0.586166 1.577445
  C 2.301460 1.061704 2.717183
  H 2.926625 1.376023 3.547939
  C 3.202235 -0.312269 -0.766237
  C 4.739241 -0.343418 -0.616729
  C 4.342425 -0.695970 -1.772479
  C 4.205516 -1.295492 -3.043381
  H 3.192875 -1.506580 -3.353802
  O 7.269958 -1.008321 -2.787629
  H 0.525052 0.477062 1.138565
  H 0.623105 -0.887724 0.042424
  H 0.659407 0.746148 -0.589578
  H 3.844769 1.410043 1.293744
  H 3.811424 -0.229676 1.940378
  H 1.649130 0.268770 3.072924
  H 1.691671 1.910160 2.420451
  H 2.450256 -0.597309 -1.515854
  H 5.445498 -0.090282 0.127829
  H 4.806305 -2.207310 -3.044763
  H 4.696129 -0.658071 -3.782429
  H 7.971461 -0.744876 -2.208154
 23
 141.249905
  C 0.924336 0.136309 0.280736
  C 2.413468 0.096183 0.377210
  C 3.135506 0.561301 1.600536
  C 2.276113 1.108882 2.728760
  H 2.920065 1.423595 3.548643
  C 3.109134 -0.357581 -0.730084
  C 4.681898 -0.425972 -0.582198
  C 4.235251 -0.733101 -1.726539
  C 4.210528 -1.285538 -3.046343
  H 3.226934 -1.548659 -3.411994
  O 7.675749 -1.010519 -3.005968
  H 0.471368 0.529890 1.181378
  H 0.519564 -0.861566 0.109123
  H 0.608004 0.755550 -0.558696
  H 3.835834 1.345400 1.290578
  H 3.737867 -0.266705 1.986316
  H 1.593911 0.354149 3.115701
  H 1.701412 1.975372 2.407287
  H 2.353586 -0.641480 -1.473170
  H 5.353759 -0.189456 0.202945
  H 4.870412 -2.151715 -3.057401
  H 4.678575 -0.577772 -3.731473
  H 8.440362 -0.742944 -2.494511
 23
 111.111000
  C 0.907813 0.147030 0.303655
  C 2.396077 0.111781 0.414392
  C 3.104748 0.577657 1.645223
  C 2.232705 1.120807 2.765859
  H 2.867680 1.436567 3.592316
  C 3.168152 -0.378991 -0.786767
  C 4.693287 -0.437088 -0.614035
  C 4.234624 -0.733556 -1.728983
  C 4.196409 -1.287164 -3.047975
  H 3.208825 -1.547980 -3.404409
  O 7.781279 -1.033160 -3.079416
  H 0.444882 0.537858 1.200422
  H 0.508081 -0.851965 0.126829
  H 0.597476 0.766347 -0.537956
  H 3.805373 1.364530 1.343059
  H 3.706165 -0.248842 2.035677
  H 1.549367 0.363258 3.145216
  H 1.658199 1.985797 2.440027
  H 2.420944 -0.664390 -1.537672
  H 5.364772 -0.203634 0.172344
  H 4.853839 -2.155124 -3.064202
  H 4.660098 -0.581304 -3.738017
  H 8.550749 -0.768236 -2.573898
 23
 135.102218
  C 0.849167 0.131118 0.378023
  C 2.345024 0.115930 0.418819
  C 3.080732 0.599054 1.626060
  C 2.241620 1.154719 2.769906
  H 2.901368 1.478255 3.571182
  C 2.998185 -0.362683 -0.683530
  C 4.554804 -0.485992 -0.622451
  C 4.267669 -0.797719 -1.803345
  C 4.256983 -1.261871 -3.141711
  H 3.269330 -1.493245 -3.532610
  O 8.063825 -1.082741 -3.114226
  H 0.435168 0.543749 1.288090
  H 0.454275 -0.875895 0.259867
  H 0.490694 0.728970 -0.457082
  H 3.779625 1.384556 1.314092
  H 3.690605 -0.215839 2.024816
  H 1.572676 0.403207 3.182174
  H 1.660029 2.017658 2.457135
  H 2.261660 -0.700114 -1.408627
  H 5.197352 -0.243099 0.189717
  H 4.899081 -2.146579 -3.196689
  H 4.728190 -0.509448 -3.785268
  H 8.817978 -0.829008 -2.580156
