 17
 0.000000
  H 1.487372 0.050297 0.244333
  C 2.565822 0.053956 0.179486
  C 3.288945 -0.020160 1.493057
  C 2.345846 -0.087617 2.688409
  H 2.909180 -0.139980 3.616428
  C 3.161003 0.121142 -1.011176
  H 2.594405 0.173004 -1.930321
  C 4.591309 0.132364 -1.209974
  C 5.172093 0.199990 -2.408620
  O 6.508316 0.212650 -2.632956
  H 3.935714 0.856489 1.603357
  H 3.935717 -0.903649 1.504038
  H 1.707994 -0.967064 2.622554
  H 1.707983 0.793649 2.721910
  H 5.226531 0.082954 -0.334255
  H 4.628135 0.252551 -3.340171
  H 6.979310 0.165132 -1.790726
 17
 12.166842
  H 1.503200 0.049617 0.256360
  C 2.580303 0.052595 0.203611
  C 3.311492 -0.020540 1.499799
  C 2.243077 -0.094722 2.814299
  H 2.808250 -0.146816 3.737543
  C 3.210237 0.124401 -1.068900
  H 2.617091 0.175178 -1.968823
  C 4.632601 0.135733 -1.269672
  C 5.203169 0.203891 -2.477750
  O 6.536435 0.217484 -2.718651
  H 3.949264 0.855279 1.631027
  H 3.949268 -0.905554 1.531666
  H 1.617495 -0.975448 2.723290
  H 1.617483 0.790646 2.822947
  H 5.271034 0.086447 -0.396154
  H 4.643432 0.255933 -3.400099
  H 7.018730 0.170324 -1.882779
