 14
 0.000000
  C 0.968973 0.138009 0.394574
  C 2.424922 0.100452 0.301569
  H 3.001974 0.441289 1.150451
  C 3.094442 -0.347670 -0.814352
  C 4.492059 -0.376993 -0.888176
  C 5.160579 -0.828850 -2.014015
  H 4.605245 -1.176354 -2.878403
  O 6.438508 -0.886781 -2.159830
  H 0.622731 0.520988 1.349014
  H 0.551998 -0.859566 0.226957
  H 0.552710 0.744079 -0.415780
  H 2.526052 -0.690090 -1.666796
  H 5.061534 -0.033847 -0.034645
  H 6.948878 -0.575338 -1.386072
 14
 4.072977
  C 1.003402 0.178653 0.437314
  C 2.438773 0.075728 0.211061
  H 3.044982 0.429087 1.030039
  C 3.030410 -0.444620 -0.911076
  C 4.437523 -0.481056 -0.898007
  C 5.155779 -0.833351 -2.027492
  H 4.722315 -1.177973 -2.951501
  O 6.442413 -0.749939 -2.062716
  H 0.751762 0.605815 1.401447
  H 0.541920 -0.805400 0.327520
  H 0.538912 0.761407 -0.363986
  H 2.459401 -0.776518 -1.756340
  H 4.970066 -0.169186 -0.012135
  H 6.910919 -0.440859 -1.253808
 14
 4.941337
  C 1.017311 0.218122 0.417930
  C 2.456115 0.070552 0.216895
  H 3.075856 0.442623 1.017764
  C 3.023552 -0.535551 -0.876036
  C 4.418047 -0.659509 -0.897229
  C 5.175496 -0.839728 -2.044201
  H 4.782131 -1.163902 -3.000794
  O 6.438030 -0.570490 -2.063829
  H 0.775655 0.736526 1.343397
  H 0.542715 -0.768786 0.416201
  H 0.558812 0.738482 -0.425226
  H 2.419651 -0.855931 -1.711089
  H 4.963317 -0.389948 0.000732
  H 6.821705 -0.250393 -1.223721
 14
 5.510755
  C 1.030747 0.253902 0.396693
  C 2.451753 -0.021509 0.261746
  H 3.093801 0.310276 1.067803
  C 3.047071 -0.584858 -0.829546
  C 4.442853 -0.777936 -0.866837
  C 5.169051 -0.799710 -2.030891
  H 4.696697 -1.025666 -2.980394
  O 6.406871 -0.451219 -2.123589
  H 0.790208 0.797297 1.311927
  H 0.465893 -0.672394 0.370702
  H 0.666201 0.791491 -0.484637
  H 2.447874 -0.794696 -1.726373
  H 4.979702 -0.613301 0.058161
  H 6.820200 -0.241971 -1.258401
 14
 8.728174
  C 1.059646 0.287854 0.366470
  C 2.490160 0.001440 0.249630
  H 3.126132 0.307012 1.065746
  C 3.038187 -0.652823 -0.823228
  C 4.442495 -0.907184 -0.859895
  C 5.149057 -0.753049 -2.043099
  H 4.663867 -0.829350 -3.009073
  O 6.364979 -0.323309 -2.093624
  H 0.835945 0.940280 1.202916
  H 0.508409 -0.659347 0.515930
  H 0.666936 0.698157 -0.571585
  H 2.447956 -0.847533 -1.700107
  H 4.982283 -0.895477 0.086319
  H 6.798229 -0.208761 -1.221232
