 17
 0.000000
  H 1.405224 0.134920 0.386628
  C 2.475139 0.140018 0.399085
  C 3.241227 0.613797 1.578372
  H 2.683154 0.954049 2.425534
  C 3.096863 -0.322475 -0.752613
  C 4.472906 -0.413204 -0.978851
  C 5.132414 -0.867699 -2.111643
  C 4.618673 -1.388937 -3.410716
  H 3.569972 -1.467842 -3.607948
  O 6.457488 -0.870547 -2.119086
  H 3.897288 1.429656 1.253616
  H 3.897458 -0.199872 1.908184
  H 2.436796 -0.639606 -1.542199
  H 5.100515 -0.083792 -0.158214
  H 5.068655 -2.379864 -3.541239
  H 5.069011 -0.763340 -4.190016
  H 6.834017 -0.535875 -1.285013
 17
 0.000000
  H 1.468194 0.113756 0.333902
  C 2.537989 0.121643 0.353309
  C 3.295163 0.597408 1.537544
  H 2.730713 0.936198 2.381060
  C 3.142088 -0.334481 -0.782525
  C 4.448863 -0.418355 -0.991688
  C 5.084296 -0.854187 -2.077981
  C 4.601531 -1.379520 -3.387253
  H 3.557761 -1.467024 -3.605888
  O 6.341109 -0.837137 -2.035854
  H 3.951191 1.414977 1.217049
  H 3.951357 -0.214550 1.871619
  H 2.481431 -0.651441 -1.571686
  H 5.073584 -0.088178 -0.169156
  H 5.062219 -2.366706 -3.508466
  H 5.062559 -0.750178 -4.157233
  H 6.666751 -0.482838 -1.152872
 17
 0.000000
  H 1.531369 0.093760 0.284084
  C 2.600982 0.104574 0.310784
  C 3.348760 0.582398 1.500151
  H 2.777647 0.919635 2.339796
  C 3.189582 -0.346934 -0.813549
  C 4.425809 -0.424507 -1.007020
  C 5.037929 -0.841786 -2.047087
  C 4.587855 -1.371136 -3.366362
  H 3.549792 -1.467601 -3.607298
  O 6.224297 -0.806314 -1.959067
  H 4.004720 1.401762 1.184129
  H 4.004881 -0.227765 1.838700
  H 2.527853 -0.663582 -1.601937
  H 5.047742 -0.093597 -0.182672
  H 5.059516 -2.354310 -3.477593
  H 5.059840 -0.737778 -4.126351
  H 6.492725 -0.430374 -1.022158
 17
 0.000000
  H 1.594141 0.075168 0.237763
  C 2.663507 0.088992 0.271964
  C 3.401578 0.568907 1.466542
  H 2.823643 0.904527 2.302158
  C 3.238927 -0.359761 -0.845506
  C 4.404289 -0.431504 -1.024457
  C 4.993950 -0.830504 -2.018981
  C 4.577835 -1.363701 -3.347833
  H 3.546236 -1.469351 -3.611628
  O 6.108619 -0.778467 -1.889695
  H 4.057430 1.390117 1.155120
  H 4.057586 -0.239409 1.809692
  H 2.575764 -0.675992 -1.632856
  H 5.023465 -0.099873 -0.198326
  H 5.060549 -2.342640 -3.448528
  H 5.060853 -0.726105 -4.097277
  H 6.312557 -0.379464 -0.895312
 17
 0.000000
  H 1.655679 0.058422 0.196038
  C 2.724736 0.075264 0.237762
  C 3.453026 0.557250 1.437500
  H 2.868280 0.891228 2.269026
  C 3.289651 -0.372948 -0.878362
  C 4.384766 -0.439316 -1.043923
  C 4.953007 -0.820508 -1.994078
  C 4.571703 -1.357311 -3.331907
  H 3.547283 -1.472251 -3.618820
  O 5.995884 -0.753988 -1.828712
  H 4.108732 1.380311 1.130692
  H 4.108883 -0.249215 1.785265
  H 2.624720 -0.688663 -1.664427
  H 5.001205 -0.106973 -0.216032
  H 5.065388 -2.331839 -3.421630
  H 5.065672 -0.715301 -4.070370
  H 6.127546 -0.330775 -0.773999
 17
 0.000000
  H 1.715666 0.044015 0.160141
  C 2.784357 0.063829 0.209270
  C 3.502976 0.547825 1.414021
  H 2.911557 0.880168 2.241474
  C 3.341961 -0.386778 -0.912817
  C 4.367433 -0.448175 -1.065997
  C 4.915245 -0.812003 -1.972892
  C 4.569697 -1.352162 -3.319073
  H 3.553224 -1.476514 -3.629404
  O 5.886557 -0.733026 -1.776490
  H 4.158501 1.372709 1.111756
  H 4.158648 -0.256817 1.766329
  H 2.674860 -0.701856 -1.697297
  H 4.981131 -0.115124 -0.236356
  H 5.074281 -2.322088 -3.397348
  H 5.074542 -0.705546 -4.046080
  H 5.936615 -0.284003 -0.657462
 17
 0.000000
  H 1.773209 0.032674 0.131881
  C 2.841497 0.055317 0.188059
  C 3.550868 0.541202 1.397521
  H 2.953125 0.871971 2.221052
  C 3.395716 -0.401517 -0.949536
  C 4.352705 -0.458317 -1.091268
  C 4.881175 -0.805305 -1.956204
  C 4.572157 -1.348533 -3.310025
  H 3.564391 -1.482366 -3.643944
  O 5.782035 -0.715908 -1.733844
  H 4.206188 1.367822 1.099581
  H 4.206330 -0.261704 1.754153
  H 2.726014 -0.715827 -1.732107
  H 4.963619 -0.124551 -0.259862
  H 5.087494 -2.313684 -3.376420
  H 5.087730 -0.697139 -4.025145
  H 5.739877 -0.239094 -0.545566
 17
 0.000000
  H 1.827125 0.025268 0.113419
  C 2.895000 0.050476 0.175992
  C 3.595948 0.538054 1.389677
  H 2.992492 0.867379 2.209612
  C 3.450619 -0.417473 -0.989288
  C 4.341088 -0.470017 -1.120419
  C 4.851437 -0.800777 -1.944923
  C 4.579447 -1.346751 -3.305577
  H 3.581104 -1.490059 -3.663064
  O 5.684102 -0.702962 -1.701590
  H 4.251051 1.366248 1.095661
  H 4.251189 -0.263279 1.750232
  H 2.777908 -0.730889 -1.769634
  H 4.949100 -0.135510 -0.287185
  H 5.105296 -2.306987 -3.359746
  H 5.105505 -0.690439 -4.008464
  H 5.537899 -0.195919 -0.437989
 17
 0.000000
  H 1.876400 0.022748 0.107127
  C 2.943890 0.050127 0.175112
  C 3.637685 0.539121 1.392332
  H 3.029413 0.867212 2.209196
  C 3.506575 -0.435078 -1.033147
  C 4.332994 -0.483648 -1.154382
  C 4.826436 -0.798770 -1.939919
  C 4.591830 -1.347148 -3.306557
  H 3.603606 -1.499884 -3.687493
  O 5.594035 -0.694387 -1.680225
  H 4.292585 1.368647 1.101637
  H 4.292718 -0.260880 1.756206
  H 2.830473 -0.747479 -1.810966
  H 4.937872 -0.148347 -0.319188
  H 5.127901 -2.302345 -3.348192
  H 5.128081 -0.685795 -3.996905
  H 5.330109 -0.153911 -0.333323
 17
 0.000000
  H 1.919217 0.025643 0.114324
  C 2.986398 0.054651 0.186373
  C 3.674805 0.544699 1.406224
  H 3.062927 0.871857 2.220766
  C 3.561897 -0.454097 -1.080525
  C 4.328834 -0.498989 -1.192601
  C 4.806940 -0.799369 -1.941407
  C 4.608958 -1.349751 -3.313030
  H 3.631223 -1.511591 -3.716608
  O 5.515011 -0.690151 -1.669669
  H 4.329539 1.375225 1.118023
  H 4.329669 -0.254303 1.772590
  H 2.882282 -0.765437 -1.855704
  H 4.930231 -0.162814 -0.355247
  H 5.154669 -2.299939 -3.342208
  H 5.154819 -0.683387 -3.990916
  H 5.121884 -0.113597 -0.232878
 17
 0.000000
  H 1.955080 0.034127 0.135442
  C 3.022052 0.064178 0.210091
  C 3.707007 0.554894 1.431616
  H 3.092827 0.881451 2.244665
  C 3.616019 -0.474549 -1.131475
  C 4.328438 -0.515991 -1.234957
  C 4.792683 -0.802434 -1.949039
  C 4.630356 -1.354436 -3.324688
  H 3.663379 -1.525016 -3.749999
  O 5.447406 -0.689749 -1.668661
  H 4.361629 1.386061 1.145012
  H 4.361756 -0.243469 1.799576
  H 2.932988 -0.784851 -1.904064
  H 4.925821 -0.178817 -0.395136
  H 5.185100 -2.299678 -3.341568
  H 5.185220 -0.683126 -3.990274
  H 4.913947 -0.074340 -0.135070
 17
 0.000000
  H 1.984187 0.047637 0.169080
  C 3.051058 0.078180 0.244959
  C 3.734378 0.569210 1.467272
  H 3.119111 0.895482 2.279614
  C 3.668158 -0.495963 -1.184819
  C 4.331229 -0.534115 -1.280107
  C 4.782928 -0.807321 -1.961206
  C 4.655107 -1.360580 -3.339979
  H 3.699048 -1.539500 -3.786030
  O 5.390808 -0.692169 -1.674683
  H 4.388946 1.400680 1.181424
  H 4.389072 -0.228851 1.835986
  H 2.982120 -0.805342 -1.955109
  H 4.923864 -0.195774 -0.437396
  H 5.218262 -2.300972 -3.344799
  H 5.218351 -0.684419 -3.993503
  H 4.707891 -0.035888 -0.039274
 17
 0.000000
  H 1.993516 0.051971 0.179870
  C 3.060244 0.083205 0.257471
  C 3.741272 0.574677 1.480885
  H 3.124484 0.900550 2.292232
  C 3.686437 -0.500324 -1.195683
  C 4.337964 -0.537242 -1.287895
  C 4.787987 -0.806887 -1.960121
  C 4.671470 -1.360494 -3.339756
  H 3.719094 -1.542121 -3.792542
  O 5.384375 -0.690815 -1.671306
  H 4.395762 1.406571 1.196093
  H 4.395887 -0.222960 1.850655
  H 3.001121 -0.809926 -1.966527
  H 4.927648 -0.198184 -0.443403
  H 5.237310 -2.299284 -3.340592
  H 5.237392 -0.682731 -3.989296
  H 4.658918 -0.024382 -0.010611
 17
 0.000000
  H 2.031426 0.082821 0.256693
  C 3.098262 0.113538 0.333008
  C 3.781001 0.604677 1.555602
  H 3.165349 0.930845 2.367693
  C 3.767773 -0.538553 -1.290916
  C 4.339319 -0.569659 -1.368648
  C 4.767070 -0.815753 -1.982192
  C 4.711036 -1.370657 -3.365051
  H 3.779283 -1.566566 -3.853346
  O 5.292256 -0.697365 -1.687605
  H 4.435549 1.436255 1.270023
  H 4.435675 -0.193277 1.924581
  H 3.078679 -0.846990 -2.058852
  H 4.917940 -0.227954 -0.517596
  H 5.290659 -2.300761 -3.344286
  H 5.290686 -0.684207 -3.992989
  H 4.278726 0.039639 0.148878
