 22
 0.000000
  C 0.955202 0.057947 0.171186
  C 2.457038 0.061373 0.088963
  C 3.255299 -0.011470 1.377280
  C 2.471100 -0.090797 2.683327
  H 3.172966 -0.139007 3.512638
  C 3.079697 0.127172 -1.104948
  C 2.328113 0.198268 -2.405291
  H 1.254890 0.189507 -2.265768
  C 4.531779 0.134321 -1.224740
  C 5.221552 0.196842 -2.360116
  H 6.297718 0.197118 -2.355020
  H 0.604838 0.009656 1.194352
  H 0.543455 -0.799648 -0.361085
  H 0.545003 0.962632 -0.277849
  H 3.902261 0.869546 1.431754
  H 3.907414 -0.888989 1.328717
  H 1.849796 -0.982865 2.721631
  H 1.846620 0.788054 2.827964
  H 2.598563 -0.650429 -3.034601
  H 2.597242 1.111228 -2.937837
  H 5.091644 0.084255 -0.301574
  H 4.761488 0.249886 -3.331191
 22
 4.062491
  C 0.958129 0.090308 0.185468
  C 2.435441 0.068332 0.091537
  C 3.245644 -0.000076 1.377583
  C 2.469307 -0.099858 2.684137
  H 3.175705 -0.143243 3.510550
  C 3.061500 0.129589 -1.104165
  C 2.313404 0.206737 -2.409186
  H 1.237481 0.210079 -2.277349
  C 4.514503 0.120664 -1.220055
  C 5.209957 0.177815 -2.353657
  H 6.286883 0.170014 -2.343051
  H 0.575243 0.010058 1.188252
  H 0.762374 -0.789944 -0.371208
  H 0.514575 0.958906 -0.289903
  H 3.878363 0.889937 1.434778
  H 3.911594 -0.865038 1.322086
  H 1.862084 -1.001676 2.718828
  H 1.833172 0.768715 2.837890
  H 2.578186 -0.643992 -3.036160
  H 2.592463 1.115390 -2.940891
  H 5.070145 0.066102 -0.296125
  H 4.754029 0.235375 -3.326039
 22
 11.714829
  C 0.948172 0.109639 0.191352
  C 2.432996 0.083261 0.095333
  C 3.248517 0.019385 1.382984
  C 2.459040 -0.106828 2.690169
  H 3.159879 -0.145914 3.526492
  C 3.057979 0.138654 -1.100580
  C 2.308746 0.230237 -2.403305
  H 1.232503 0.253602 -2.272721
  C 4.502879 0.101271 -1.224424
  C 5.191416 0.150397 -2.360555
  H 6.267398 0.123550 -2.355399
  H 0.542480 0.000345 1.180692
  H 0.968271 -0.799580 -0.362347
  H 0.475410 0.922271 -0.331861
  H 3.863661 0.928378 1.447773
  H 3.935996 -0.833812 1.325900
  H 1.865730 -1.020679 2.710433
  H 1.805152 0.750218 2.845573
  H 2.557166 -0.622337 -3.032032
  H 2.603206 1.132926 -2.932255
  H 5.064185 0.035460 -0.305265
  H 4.730807 0.220238 -3.331272
 22
 22.088640
  C 0.924013 0.130145 0.202693
  C 2.425955 0.087761 0.094946
  C 3.244149 0.021919 1.377129
  C 2.457298 -0.115301 2.687393
  H 3.161398 -0.154554 3.521845
  C 3.054067 0.140384 -1.102778
  C 2.305802 0.233193 -2.401675
  H 1.231952 0.259966 -2.270404
  C 4.497805 0.095722 -1.223695
  C 5.190302 0.140280 -2.361590
  H 6.265519 0.106755 -2.354411
  H 0.508697 0.009937 1.185057
  H 1.111032 -0.771057 -0.333834
  H 0.435453 0.908784 -0.346706
  H 3.852380 0.935961 1.441640
  H 3.938675 -0.826896 1.314569
  H 1.867776 -1.034153 2.704733
  H 1.797782 0.738907 2.849015
  H 2.551737 -0.621840 -3.030085
  H 2.602288 1.135251 -2.932901
  H 5.056555 0.028315 -0.303734
  H 4.731042 0.211979 -3.334338
 22
 32.397216
  C 0.924231 0.151446 0.219647
  C 2.425926 0.086470 0.091339
  C 3.236560 0.021271 1.382204
  C 2.450352 -0.123582 2.682700
  H 3.150772 -0.160802 3.516832
  C 3.053473 0.138008 -1.106677
  C 2.296330 0.232057 -2.410673
  H 1.217964 0.259491 -2.274018
  C 4.497855 0.090532 -1.226859
  C 5.191416 0.133906 -2.363704
  H 6.268401 0.100915 -2.355398
  H 0.498094 0.030159 1.195011
  H 1.237737 -0.758114 -0.314081
  H 0.411899 0.911760 -0.346806
  H 3.836047 0.936465 1.452487
  H 3.935338 -0.819952 1.322388
  H 1.868975 -1.042120 2.695579
  H 1.788635 0.722540 2.843775
  H 2.538771 -0.622331 -3.040523
  H 2.590416 1.133127 -2.943216
  H 5.056684 0.023376 -0.305025
  H 4.734441 0.205518 -3.334313
 22
 40.949389
  C 0.914467 0.170611 0.219000
  C 2.410983 0.085677 0.092687
  C 3.235028 0.014423 1.386816
  C 2.447609 -0.130759 2.687603
  H 3.150308 -0.171731 3.526307
  C 3.056538 0.139785 -1.107330
  C 2.305878 0.237801 -2.410647
  H 1.231031 0.258674 -2.276202
  C 4.486067 0.089137 -1.227356
  C 5.174019 0.131848 -2.369588
  H 6.253422 0.095719 -2.367809
  H 0.502402 0.065741 1.181630
  H 1.323715 -0.744288 -0.243258
  H 0.405608 0.869214 -0.406458
  H 3.828776 0.928286 1.451469
  H 3.934268 -0.825796 1.327708
  H 1.860637 -1.050295 2.697298
  H 1.785738 0.719323 2.849437
  H 2.552459 -0.610617 -3.043429
  H 2.595871 1.139829 -2.939825
  H 5.050406 0.020881 -0.309827
  H 4.708278 0.205336 -3.339030
 22
 47.053502
  C 0.911854 0.191140 0.231247
  C 2.406501 0.087139 0.086807
  C 3.220539 0.009644 1.369731
  C 2.443032 -0.138680 2.675635
  H 3.151674 -0.187679 3.505523
  C 3.052473 0.142197 -1.112947
  C 2.289620 0.240142 -2.416074
  H 1.206419 0.252112 -2.272538
  C 4.498309 0.089777 -1.227898
  C 5.196559 0.129797 -2.361407
  H 6.271512 0.091281 -2.347772
  H 0.502897 0.116155 1.224362
  H 1.396216 -0.748860 -0.176757
  H 0.389763 0.833078 -0.436268
  H 3.817596 0.926558 1.433330
  H 3.920174 -0.832277 1.303259
  H 1.853594 -1.053562 2.686764
  H 1.789318 0.711953 2.849664
  H 2.536363 -0.606577 -3.054524
  H 2.569292 1.146701 -2.946263
  H 5.059175 0.022689 -0.306005
  H 4.744079 0.201976 -3.330968
 22
 51.623126
  C 0.904776 0.208284 0.235234
  C 2.400402 0.085803 0.085294
  C 3.216658 0.004954 1.369220
  C 2.442624 -0.147561 2.683711
  H 3.151891 -0.205235 3.503830
  C 3.054151 0.143444 -1.118679
  C 2.298382 0.242554 -2.417315
  H 1.221993 0.245055 -2.276066
  C 4.488242 0.089045 -1.229370
  C 5.189160 0.128849 -2.364288
  H 6.266640 0.088079 -2.349639
  H 0.503096 0.167845 1.212661
  H 1.453753 -0.754258 -0.116535
  H 0.364456 0.796032 -0.479564
  H 3.816976 0.924998 1.431639
  H 3.914217 -0.835792 1.297221
  H 1.850743 -1.054427 2.694662
  H 1.798534 0.701047 2.868257
  H 2.552426 -0.601959 -3.060398
  H 2.573065 1.156215 -2.944984
  H 5.047173 0.020974 -0.306834
  H 4.735102 0.202333 -3.337288
 22
 55.195132
  C 0.911582 0.224244 0.244013
  C 2.401735 0.084712 0.085359
  C 3.216207 0.000161 1.372131
  C 2.436894 -0.151678 2.673424
  H 3.144326 -0.219018 3.501201
  C 3.056713 0.142348 -1.121622
  C 2.298826 0.242475 -2.418700
  H 1.224766 0.238684 -2.276505
  C 4.490928 0.084848 -1.234697
  C 5.190927 0.126973 -2.371148
  H 6.265815 0.096952 -2.357217
  H 0.507139 0.215082 1.235570
  H 1.507846 -0.751791 -0.062346
  H 0.358754 0.751505 -0.496162
  H 3.812013 0.906863 1.439389
  H 3.908309 -0.838573 1.302432
  H 1.831395 -1.063993 2.675026
  H 1.790490 0.711966 2.859495
  H 2.555822 -0.600193 -3.066089
  H 2.569187 1.161636 -2.945607
  H 5.054199 0.018842 -0.311565
  H 4.736559 0.202804 -3.341001
 22
 57.993788
  C 0.911015 0.242888 0.243788
  C 2.396090 0.084180 0.083581
  C 3.214091 -0.004785 1.372097
  C 2.434186 -0.162196 2.684150
  H 3.137588 -0.239532 3.502692
  C 3.053406 0.147870 -1.126789
  C 2.294522 0.240614 -2.420546
  H 1.208837 0.220035 -2.275943
  C 4.494691 0.100474 -1.238001
  C 5.197604 0.135436 -2.372153
  H 6.273383 0.075682 -2.356705
  H 0.507610 0.261459 1.221332
  H 1.546082 -0.748417 -0.024575
  H 0.345487 0.719468 -0.525912
  H 3.816703 0.908272 1.441121
  H 3.906805 -0.848550 1.295886
  H 1.828761 -1.060195 2.683003
  H 1.802592 0.692352 2.878282
  H 2.564919 -0.600511 -3.074885
  H 2.553403 1.171977 -2.946937
  H 5.061052 0.030259 -0.308655
  H 4.747583 0.194602 -3.339591
 22
 60.445400
  C 0.918810 0.259366 0.260222
  C 2.403552 0.078855 0.093625
  C 3.215764 -0.011567 1.370594
  C 2.432173 -0.166594 2.663615
  H 3.133740 -0.254906 3.492444
  C 3.065498 0.146034 -1.124412
  C 2.312440 0.235892 -2.426205
  H 1.236694 0.203476 -2.292224
  C 4.476382 0.102481 -1.229393
  C 5.181374 0.138724 -2.369285
  H 6.257592 0.078800 -2.354099
  H 0.506241 0.293471 1.256827
  H 1.584637 -0.745682 0.015154
  H 0.346403 0.692365 -0.525251
  H 3.819387 0.894141 1.443558
  H 3.898289 -0.851491 1.294606
  H 1.818012 -1.058974 2.651747
  H 1.805016 0.695680 2.855553
  H 2.593342 -0.592117 -3.076015
  H 2.560902 1.159273 -2.943414
  H 5.036919 0.032850 -0.304439
  H 4.725686 0.193583 -3.345836
 22
 62.524269
  C 0.914677 0.279648 0.248554
  C 2.402420 0.068411 0.091834
  C 3.217199 -0.021516 1.377261
  C 2.433863 -0.169725 2.680184
  H 3.132888 -0.265080 3.500304
  C 3.065770 0.132550 -1.125197
  C 2.297220 0.227644 -2.424006
  H 1.217403 0.194742 -2.278009
  C 4.493499 0.079392 -1.236444
  C 5.199444 0.131730 -2.372109
  H 6.286434 0.113161 -2.352675
  H 0.491272 0.327279 1.230716
  H 1.607499 -0.748959 0.032815
  H 0.344449 0.673831 -0.562714
  H 3.830990 0.886975 1.448008
  H 3.895768 -0.870528 1.301199
  H 1.807825 -1.058963 2.672256
  H 1.814558 0.702069 2.877509
  H 2.570372 -0.598356 -3.079512
  H 2.541580 1.158354 -2.944151
  H 5.049562 0.018471 -0.325954
  H 4.747227 0.219348 -3.343976
 22
 64.514593
  C 0.910088 0.301964 0.260692
  C 2.390957 0.067471 0.090282
  C 3.219526 -0.024608 1.366102
  C 2.444963 -0.175772 2.678359
  H 3.149025 -0.280824 3.491780
  C 3.054422 0.135346 -1.132404
  C 2.297294 0.223593 -2.441633
  H 1.217974 0.175005 -2.310514
  C 4.479606 0.084102 -1.226016
  C 5.202044 0.133994 -2.353850
  H 6.283198 0.109893 -2.320088
  H 0.491791 0.346185 1.243793
  H 1.622088 -0.742469 0.051556
  H 0.329015 0.659099 -0.555788
  H 3.840258 0.885051 1.433291
  H 3.893771 -0.872767 1.279105
  H 1.814207 -1.058111 2.671210
  H 1.835006 0.697064 2.885569
  H 2.589646 -0.598727 -3.097276
  H 2.535425 1.160309 -2.958362
  H 5.028393 0.019984 -0.299418
  H 4.762945 0.213129 -3.330995
 22
 66.342638
  C 0.921397 0.329618 0.255915
  C 2.399072 0.060000 0.095187
  C 3.220301 -0.033090 1.378719
  C 2.434395 -0.177086 2.673303
  H 3.130285 -0.290230 3.496774
  C 3.066867 0.127154 -1.131023
  C 2.307638 0.211145 -2.417673
  H 1.222594 0.151434 -2.273804
  C 4.490152 0.072342 -1.237629
  C 5.202005 0.133407 -2.373020
  H 6.286250 0.147215 -2.347948
  H 0.490452 0.369990 1.233589
  H 1.648873 -0.743322 0.060178
  H 0.337817 0.660294 -0.578632
  H 3.838013 0.864127 1.451284
  H 3.895052 -0.891581 1.299112
  H 1.793820 -1.054984 2.655792
  H 1.830497 0.701886 2.872741
  H 2.602922 -0.605979 -3.076988
  H 2.532218 1.148180 -2.930458
  H 5.044645 0.013424 -0.324102
  H 4.752469 0.224509 -3.344958
