 28
 0.000000
  H 1.558543 0.062489 0.028251
  C 2.635682 0.066218 -0.037862
  C 3.349770 -0.008227 1.281553
  C 2.407798 -0.075872 2.480274
  C 3.180849 -0.149878 3.791904
  C 3.234708 0.133669 -1.233204
  C 2.477856 0.207099 -2.534533
  C 0.955004 0.202750 -2.457397
  C 0.341024 0.281425 -3.851735
  C 4.688650 0.140320 -1.351007
  C 5.393636 0.203814 -2.476357
  H 6.471610 0.204032 -2.480198
  H 3.995867 0.868066 1.398151
  H 3.995873 -0.892075 1.298834
  H 1.765795 -0.955889 2.395890
  H 1.765786 0.808047 2.495424
  H 3.813129 -1.035070 3.817077
  H 2.494757 -0.197445 4.634815
  H 3.813125 0.726862 3.916497
  H 2.790160 -0.637466 -3.157365
  H 2.790157 1.116366 -3.058398
  H 0.606373 1.057077 -1.873641
  H 0.606373 -0.711822 -1.973457
  H 0.649239 1.193634 -4.358433
  H -0.744970 0.277829 -3.787979
  H 0.649238 -0.567995 -4.457835
  H 5.240934 0.087962 -0.423096
  H 4.964539 0.259497 -3.463160
 28
 6.951589
  H 1.596596 0.063736 0.006144
  C 2.673371 0.067956 -0.068667
  C 3.394902 -0.005941 1.241021
  C 2.353101 -0.080584 2.563754
  C 3.127456 -0.154260 3.869578
  C 3.259540 0.135667 -1.268616
  C 2.485321 0.208525 -2.559797
  C 0.963915 0.202702 -2.456559
  C 0.325749 0.280765 -3.840026
  C 4.711564 0.143185 -1.401805
  C 5.402997 0.207040 -2.533532
  H 6.480874 0.207801 -2.547000
  H 4.037481 0.869050 1.360675
  H 4.037489 -0.888838 1.261485
  H 1.714195 -0.958979 2.474078
  H 1.714186 0.802318 2.573463
  H 3.759906 -1.039362 3.893307
  H 2.442599 -0.201879 4.713413
  H 3.759900 0.722553 3.992723
  H 2.789113 -0.636031 -3.186830
  H 2.789113 1.118259 -3.087840
  H 0.625342 1.056541 -1.866090
  H 0.625342 -0.712140 -1.965894
  H 0.624657 1.193250 -4.351789
  H -0.759011 0.276133 -3.757942
  H 0.624657 -0.568359 -4.451189
  H 5.272956 0.091125 -0.479164
  H 4.961101 0.262392 -3.514469
 28
 21.802989
  H 1.646624 0.064554 -0.008347
  C 2.723267 0.069346 -0.093283
  C 3.451530 -0.003524 1.198180
  C 2.289360 -0.084240 2.628531
  C 3.057328 -0.157295 3.923318
  C 3.294250 0.137560 -1.302165
  C 2.495662 0.209656 -2.579846
  C 0.977113 0.201662 -2.438133
  C 0.303449 0.278768 -3.804665
  C 4.744483 0.146138 -1.454139
  C 5.420889 0.210596 -2.596547
  H 6.498620 0.211902 -2.619671
  H 4.081169 0.869378 1.340758
  H 4.081172 -0.886918 1.241656
  H 1.661451 -0.959723 2.511771
  H 1.661443 0.798813 2.611001
  H 3.689636 -1.042644 3.949148
  H 2.367487 -0.204746 4.764187
  H 3.689637 0.719539 4.048583
  H 2.787356 -0.635067 -3.212292
  H 2.787357 1.120165 -3.113250
  H 0.654253 1.054642 -1.837638
  H 0.654253 -0.713455 -1.937408
  H 0.588725 1.191631 -4.323519
  H -0.778903 0.272627 -3.695822
  H 0.588723 -0.569928 -4.422911
  H 5.315842 0.094375 -0.536767
  H 4.961308 0.265470 -3.569044
 28
 38.112411
  H 1.685703 0.065360 -0.022632
  C 2.761170 0.070800 -0.119035
  C 3.506359 -0.001519 1.162665
  C 2.231295 -0.088631 2.706358
  C 3.007037 -0.161355 3.995292
  C 3.315709 0.139424 -1.335181
  C 2.499424 0.210936 -2.602516
  C 0.983200 0.201593 -2.436919
  C 0.287770 0.278073 -3.792348
  C 4.762650 0.148852 -1.502223
  C 5.424806 0.213607 -2.649890
  H 6.501920 0.215383 -2.681370
  H 4.126525 0.876150 1.328008
  H 4.126533 -0.892218 1.228225
  H 1.611350 -0.968172 2.564283
  H 1.611344 0.801304 2.664128
  H 3.639709 -1.046712 4.020033
  H 2.318294 -0.208985 4.839387
  H 3.639703 0.715600 4.119469
  H 2.783039 -0.633823 -3.238274
  H 2.783040 1.121855 -3.139212
  H 0.670386 1.054026 -1.830476
  H 0.670384 -0.713648 -1.930220
  H 0.564596 1.191134 -4.315395
  H -0.792738 0.271004 -3.667025
  H 0.564594 -0.570354 -4.414790
  H 5.341534 0.097363 -0.589705
  H 4.950862 0.268068 -3.615085
 28
 54.458730
  H 1.721567 0.065688 -0.028439
  C 2.795930 0.071880 -0.138181
  C 3.555378 0.000599 1.125120
  C 2.172285 -0.093128 2.786057
  C 2.955966 -0.165001 4.059871
  C 3.334657 0.141023 -1.363512
  C 2.501673 0.211917 -2.619902
  C 0.987873 0.201357 -2.432730
  C 0.272983 0.277260 -3.777925
  C 4.781641 0.151345 -1.546413
  C 5.434879 0.216818 -2.706789
  H 6.511948 0.219096 -2.747161
  H 4.162496 0.878774 1.310139
  H 4.162498 -0.892808 1.210173
  H 1.564007 -0.972622 2.622646
  H 1.563997 0.799165 2.722622
  H 3.588511 -1.050020 4.080642
  H 2.272500 -0.212925 4.909155
  H 3.588506 0.712066 4.180066
  H 2.777662 -0.632990 -3.258843
  H 2.777662 1.123336 -3.159742
  H 0.683951 1.053472 -1.821196
  H 0.683949 -0.714145 -1.920933
  H 0.542023 1.190518 -4.304717
  H -0.805638 0.269346 -3.637630
  H 0.542020 -0.570940 -4.404109
  H 5.368123 0.100091 -0.638049
  H 4.947984 0.270923 -3.665680
 28
 69.312627
  H 1.756583 0.066447 -0.041866
  C 2.830029 0.073318 -0.163635
  C 3.606077 0.002696 1.087973
  C 2.116444 -0.097715 2.867360
  C 2.912369 -0.169037 4.131408
  C 3.351835 0.142773 -1.394529
  C 2.504147 0.213085 -2.640617
  C 0.992810 0.201455 -2.434473
  C 0.260909 0.276834 -3.770396
  C 4.793344 0.153890 -1.591507
  C 5.427149 0.219029 -2.745975
  H 6.502904 0.221820 -2.795430
  H 4.202315 0.884905 1.293002
  H 4.202323 -0.896980 1.192457
  H 1.517709 -0.980813 2.683236
  H 1.517703 0.800483 2.783749
  H 3.545351 -1.054485 4.147892
  H 2.235344 -0.217394 4.988386
  H 3.545345 0.708938 4.247392
  H 2.773315 -0.631874 -3.282357
  H 2.773316 1.124872 -3.183233
  H 0.696684 1.053255 -1.818721
  H 0.696684 -0.714203 -1.918452
  H 0.522967 1.190254 -4.300431
  H -0.815875 0.268172 -3.616827
  H 0.522964 -0.571160 -4.399819
  H 5.387061 0.102951 -0.688720
  H 4.927908 0.272728 -3.697672
 28
 82.084655
  H -nan -nan -nan
  C -nan -nan -nan
  C -nan -nan -nan
  C -nan -nan -nan
  C -nan -nan -nan
  C -nan -nan -nan
  C -nan -nan -nan
  C -nan -nan -nan
  C -nan -nan -nan
  C -nan -nan -nan
  C -nan -nan -nan
  H -nan -nan -nan
  H -nan -nan -nan
  H -nan -nan -nan
  H -nan -nan -nan
  H -nan -nan -nan
  H -nan -nan -nan
  H -nan -nan -nan
  H -nan -nan -nan
  H -nan -nan -nan
  H -nan -nan -nan
  H -nan -nan -nan
  H -nan -nan -nan
  H -nan -nan -nan
  H -nan -nan -nan
  H -nan -nan -nan
  H -nan -nan -nan
  H -nan -nan -nan
