 17
 0.000000
  C 1.011834 0.131417 0.376769
  C 2.483846 0.136150 0.389862
  C 3.209862 0.612629 1.576589
  H 2.544989 0.932008 2.371440
  C 3.135918 -0.322788 -0.752017
  C 4.519819 -0.388428 -0.916082
  C 5.141374 -0.846476 -2.056572
  H 4.605273 -1.198355 -2.930414
  O 6.428481 -0.911293 -2.222167
  H 0.584059 0.503343 1.302460
  H 0.640786 -0.878758 0.196003
  H 0.641543 0.736628 -0.452358
  H 3.862644 1.444969 1.308615
  H 3.862230 -0.174100 1.958931
  H 2.516484 -0.653326 -1.574944
  H 5.142745 -0.058349 -0.094480
  H 6.952435 -0.600927 -1.455548
 17
 2.719598
  C 1.059085 -0.027875 0.388024
  C 2.500909 0.262337 0.341796
  C 3.192015 0.702888 1.565445
  H 2.494656 0.892407 2.374832
  C 3.173746 0.070621 -0.860259
  C 4.541364 -0.211803 -0.938998
  C 5.090646 -0.863922 -2.021564
  H 4.483277 -1.132774 -2.878481
  O 6.326688 -1.242094 -2.135828
  H 0.616803 0.222364 1.346538
  H 0.894175 -1.090208 0.195856
  H 0.531522 0.495674 -0.410055
  H 3.776628 1.602094 1.372246
  H 3.900567 -0.056087 1.901584
  H 2.578176 -0.123232 -1.742968
  H 5.178182 0.010640 -0.093684
  H 6.896714 -1.012246 -1.373765
 17
 17.509277
  C 1.197077 -0.176458 0.313719
  C 2.580074 0.341156 0.307773
  C 3.179952 0.755424 1.577976
  H 2.428348 0.803396 2.361856
  C 3.221052 0.476166 -0.914124
  C 4.523659 -0.137069 -0.897347
  C 4.928458 -0.958460 -1.935467
  H 4.248124 -1.287346 -2.683733
  O 6.118606 -1.476559 -2.065731
  H 0.734540 -0.064167 1.288365
  H 1.212835 -1.239948 0.080813
  H 0.581445 0.293647 -0.452637
  H 3.659923 1.726529 1.469085
  H 3.947485 0.049702 1.909227
  H 2.671450 0.484336 -1.853794
  H 5.238267 0.131281 -0.139945
  H 6.761433 -1.217384 -1.339885
 17
 43.130648
  C 1.424950 -0.355565 0.180123
  C 2.727355 0.359702 0.224764
  C 3.216734 0.801176 1.560094
  H 2.425696 0.696073 2.291544
  C 3.273392 0.828262 -0.970783
  C 4.408801 -0.058410 -0.770832
  C 4.664961 -1.011552 -1.742953
  H 3.877153 -1.389833 -2.370590
  O 5.803344 -1.621169 -1.937323
  H 0.938544 -0.359616 1.145978
  H 1.585280 -1.389918 -0.125357
  H 0.758002 0.100831 -0.562906
  H 3.535245 1.845777 1.515890
  H 4.057162 0.215556 1.925420
  H 2.794697 1.006912 -1.926652
  H 5.221435 0.205049 -0.104946
  H 6.523721 -1.369921 -1.309307
 17
 47.971315
  C 1.697385 -0.567084 0.056509
  C 2.910431 0.341063 0.163516
  C 3.193504 0.931019 1.539195
  H 2.363110 0.723560 2.206632
  C 3.392357 1.032455 -0.974361
  C 4.302370 -0.067566 -0.572586
  C 4.383255 -1.065566 -1.564148
  H 3.510240 -1.317188 -2.158716
  O 5.439448 -1.696052 -1.922930
  H 1.188749 -0.637219 1.010980
  H 1.992209 -1.567396 -0.240700
  H 0.992156 -0.185051 -0.682210
  H 3.319143 2.008537 1.471052
  H 4.086637 0.511280 1.989607
  H 3.062109 1.425538 -1.908675
  H 5.189017 0.116426 0.023218
  H 6.254352 -1.519964 -1.404644
 17
 56.605043
  C 1.687019 -0.649831 0.146659
  C 2.923945 0.233143 0.202600
  C 3.120574 1.085890 1.462157
  H 2.278524 0.948715 2.137091
  C 3.517229 0.873023 -0.937567
  C 4.271784 -0.275650 -0.385397
  C 4.368897 -1.045351 -1.596565
  H 3.526172 -1.121223 -2.282566
  O 5.462626 -1.487799 -2.095983
  H 1.204913 -0.687710 1.114414
  H 1.958797 -1.663795 -0.131700
  H 0.969874 -0.273966 -0.582599
  H 3.179892 2.135691 1.207898
  H 4.029392 0.813500 1.988238
  H 3.319899 1.375823 -1.851479
  H 5.187867 -0.376274 0.185277
  H 6.271478 -1.415963 -1.545668
 17
 91.956203
  C 1.632999 -0.674507 0.308324
  C 2.816646 0.273215 0.262198
  C 3.110362 1.126001 1.476228
  H 2.327789 1.003810 2.218762
  C 3.360456 0.776794 -0.984323
  C 4.147839 -0.266418 -0.440637
  C 4.578699 -0.866194 -1.830682
  H 4.002949 -0.620500 -2.717259
  O 5.731236 -1.382029 -2.063156
  H 1.135427 -0.631896 1.271142
  H 1.949029 -1.696422 0.105124
  H 0.899816 -0.416925 -0.447772
  H 3.182724 2.168736 1.199892
  H 4.049963 0.839356 1.941546
  H 3.052621 1.265405 -1.884019
  H 5.046266 -0.712582 -0.070742
  H 6.266162 -1.716389 -1.307337
 17
 121.062471
  C 1.483717 -0.598967 0.409954
  C 2.723850 0.257389 0.404837
  C 2.987464 1.151349 1.595429
  H 2.184039 1.074507 2.321567
  C 3.312353 0.645065 -0.899161
  C 4.026476 -0.287564 -0.311847
  C 4.974754 -0.983651 -2.220041
  H 4.443987 -0.685467 -3.126534
  O 6.144047 -1.364698 -2.385353
  H 0.955736 -0.525099 1.355542
  H 1.738871 -1.644147 0.242627
  H 0.800973 -0.302354 -0.386429
  H 3.071998 2.187899 1.274511
  H 3.915915 0.891508 2.100368
  H 2.994285 1.091192 -1.809667
  H 4.875260 -0.793146 0.070812
  H 6.677909 -1.644868 -1.601050
 17
 125.916641
  C 1.422910 -0.569128 0.509416
  C 2.683739 0.251053 0.495403
  C 2.907209 1.253738 1.596470
  H 2.083255 1.251829 2.303741
  C 3.307529 0.538398 -0.874610
  C 3.942864 -0.344647 -0.172403
  C 5.255409 -0.945116 -2.419766
  H 4.777540 -0.662647 -3.363123
  O 6.347285 -1.521385 -2.558942
  H 0.858922 -0.416707 1.425211
  H 1.653603 -1.630152 0.417501
  H 0.778132 -0.312152 -0.331128
  H 3.007946 2.254855 1.178709
  H 3.824474 1.048347 2.148131
  H 2.851578 0.950219 -1.739329
  H 4.794923 -0.872127 0.172379
  H 6.841276 -1.803837 -1.748873
 17
 124.491934
  C 1.522762 -0.581609 0.464817
  C 2.825706 0.153307 0.565428
  C 2.952243 1.299569 1.524251
  H 2.046295 1.424242 2.110472
  C 3.690748 0.254203 -0.871421
  C 4.055629 -0.513513 0.106651
  C 4.857733 -0.764283 -2.498661
  H 4.502423 -0.448751 -3.485450
  O 5.938052 -1.380978 -2.506855
  H 0.846787 -0.291440 1.263800
  H 1.678569 -1.658771 0.509685
  H 1.022774 -0.372663 -0.479919
  H 3.142573 2.234685 0.999660
  H 3.791013 1.141458 2.199448
  H 3.327068 0.731006 -1.741923
  H 4.859230 -1.076045 0.520460
  H 6.306918 -1.677391 -1.637593
 17
 102.113345
  C 1.566243 -0.562880 0.457183
  C 2.864799 0.146088 0.561176
  C 3.018109 1.229072 1.537283
  H 2.119561 1.365574 2.134068
  C 3.792841 0.190584 -1.187026
  C 4.020496 -0.469675 -0.008773
  C 4.631121 -0.601488 -2.302098
  H 4.406103 -0.342200 -3.359616
  O 5.757975 -1.291695 -2.204657
  H 0.905576 -0.312591 1.289255
  H 1.718991 -1.646383 0.426629
  H 1.018997 -0.315996 -0.450802
  H 3.214741 2.161634 1.023251
  H 3.874295 1.040372 2.168050
  H 3.471712 0.615254 -2.095076
  H 4.813520 -1.062262 0.402775
  H 6.042353 -1.560069 -1.307430
 17
 44.378777
  C 1.543110 -0.471740 0.463783
  C 2.861677 0.168469 0.608805
  C 3.056811 1.172863 1.656917
  H 2.176943 1.304724 2.280158
  C 3.883331 0.068823 -1.450959
  C 3.937302 -0.377231 -0.139026
  C 4.700202 -0.656223 -2.374144
  H 4.582292 -0.479788 -3.441263
  O 5.795308 -1.322704 -2.131659
  H 0.894433 -0.239108 1.301473
  H 1.653903 -1.550910 0.355469
  H 1.021592 -0.141599 -0.438915
  H 3.287052 2.129110 1.176705
  H 3.921461 0.938092 2.273264
  H 3.133351 0.365657 -2.169259
  H 4.732835 -0.935598 0.303031
  H 6.028427 -1.414165 -1.185110
 17
 15.618243
  C 1.478664 -0.324891 0.434234
  C 2.861442 0.159246 0.639771
  C 3.143723 1.119561 1.711191
  H 2.296810 1.270841 2.369236
  C 3.816504 -0.236247 -1.550411
  C 3.891087 -0.358431 -0.167511
  C 4.779452 -0.711686 -2.422232
  H 4.611246 -0.654355 -3.488714
  O 5.912376 -1.291413 -2.135551
  H 0.851039 -0.114833 1.285175
  H 1.472867 -1.389662 0.218326
  H 1.024170 0.153532 -0.440339
  H 3.390560 2.073525 1.247166
  H 4.031427 0.840958 2.288300
  H 2.919262 0.092653 -2.044026
  H 4.761325 -0.770539 0.316739
  H 6.102196 -1.366340 -1.183680
 17
 5.758429
  C 1.448874 -0.184499 0.342126
  C 2.848644 0.157883 0.638191
  C 3.163099 0.998420 1.802941
  H 2.295530 1.177911 2.429276
  C 3.743485 -0.461978 -1.570451
  C 3.879993 -0.275531 -0.193573
  C 4.763100 -0.866802 -2.413777
  H 4.555321 -1.020146 -3.466620
  O 6.004281 -1.099795 -2.114477
  H 0.784114 0.098052 1.151827
  H 1.347341 -1.248227 0.132370
  H 1.115469 0.329748 -0.562236
  H 3.547557 1.959444 1.453844
  H 3.964706 0.566308 2.402867
  H 2.785075 -0.303944 -2.036476
  H 4.859177 -0.373737 0.257722
  H 6.238384 -0.961188 -1.175882
 17
 4.271995
  C 1.402029 -0.041128 0.291812
  C 2.827517 0.194086 0.611307
  C 3.209093 0.870319 1.862154
  H 2.353238 1.096426 2.487456
  C 3.691503 -0.640284 -1.574382
  C 3.834731 -0.210293 -0.249402
  C 4.780855 -0.941710 -2.378146
  H 4.612050 -1.283381 -3.390194
  O 6.042136 -0.857624 -2.089615
  H 0.738305 0.318147 1.074534
  H 1.215144 -1.094765 0.078006
  H 1.144420 0.490538 -0.629404
  H 3.768027 1.782088 1.649452
  H 3.896723 0.242014 2.431029
  H 2.722891 -0.824952 -2.011323
  H 4.854818 -0.049203 0.094111
  H 6.250673 -0.558360 -1.179723
