 23
 0.000000
  C 0.962525 0.200598 0.550348
  C 2.442598 0.113996 0.334395
  H 3.059860 0.445243 1.159160
  C 2.991178 -0.339478 -0.795083
  C 4.408932 -0.431549 -1.024738
  C 5.073945 -0.864056 -2.102721
  C 4.634172 -1.400760 -3.440201
  C 3.151391 -1.532090 -3.768184
  C 2.971406 -2.096332 -5.174641
  O 6.450514 -0.866896 -2.110074
  H 0.738703 0.597233 1.538174
  H 0.499780 -0.784644 0.460108
  H 0.499671 0.849776 -0.196182
  H 2.332898 -0.656716 -1.585020
  H 5.015319 -0.094799 -0.185714
  H 5.107935 -2.384429 -3.541219
  H 5.108220 -0.759972 -4.193085
  H 2.669493 -0.554724 -3.716921
  H 2.669213 -2.202879 -3.055701
  H 3.431772 -1.441705 -5.911323
  H 1.915014 -2.192399 -5.414583
  H 3.431498 -3.078776 -5.254548
  H 6.798574 -0.533382 -1.278779
 23
 -0.081280
  C 0.975015 0.255534 0.594143
  C 2.442146 0.080572 0.339071
  H 3.110742 0.395177 1.132731
  C 2.949215 -0.396282 -0.799624
  C 4.366675 -0.492314 -1.029011
  C 5.059996 -0.874633 -2.110665
  C 4.648729 -1.391480 -3.462929
  C 3.170437 -1.556282 -3.786291
  C 2.994135 -2.101517 -5.202304
  O 6.434055 -0.828059 -2.083089
  H 0.799139 0.714819 1.566979
  H 0.460560 -0.705225 0.570500
  H 0.524130 0.885259 -0.171908
  H 2.275423 -0.703235 -1.577248
  H 4.962046 -0.166415 -0.176606
  H 5.150378 -2.360351 -3.584766
  H 5.102986 -0.719137 -4.201354
  H 2.665884 -0.592172 -3.712955
  H 2.712359 -2.249273 -3.079799
  H 3.431028 -1.421172 -5.932689
  H 1.936744 -2.222549 -5.435964
  H 3.480893 -3.071117 -5.303761
  H 6.736894 -0.480087 -1.237007
 23
 0.151999
  C 0.951038 0.265112 0.603868
  C 2.403533 0.034224 0.330712
  H 3.085868 0.329008 1.118705
  C 2.904992 -0.438849 -0.811348
  C 4.326938 -0.527288 -1.024495
  C 5.045701 -0.873728 -2.101014
  C 4.665260 -1.384806 -3.462616
  C 3.194374 -1.597995 -3.791300
  C 3.040012 -2.147775 -5.205650
  O 6.416264 -0.786668 -2.050631
  H 0.809830 0.757000 1.562188
  H 0.403381 -0.678009 0.618941
  H 0.507688 0.886110 -0.174134
  H 2.234017 -0.732081 -1.600334
  H 4.904997 -0.206037 -0.159514
  H 5.200427 -2.332048 -3.592188
  H 5.098061 -0.689188 -4.189723
  H 2.658481 -0.650425 -3.719517
  H 2.756929 -2.304946 -3.084624
  H 3.457656 -1.455614 -5.933247
  H 1.989948 -2.300922 -5.442512
  H 3.555703 -3.100162 -5.305005
  H 6.694335 -0.423073 -1.200150
 23
 0.805974
  C 0.982473 0.332934 0.640529
  C 2.415295 0.037525 0.321205
  H 3.128360 0.313045 1.087959
  C 2.877687 -0.487588 -0.813760
  C 4.296843 -0.623260 -1.021484
  C 5.026025 -0.898844 -2.110506
  C 4.660100 -1.356790 -3.493310
  C 3.194420 -1.613577 -3.811287
  C 3.041423 -2.144140 -5.231621
  O 6.394619 -0.796209 -2.032246
  H 0.898171 0.868885 1.581167
  H 0.403391 -0.588801 0.718124
  H 0.528242 0.936308 -0.145597
  H 2.191411 -0.771130 -1.593591
  H 4.872407 -0.385182 -0.127634
  H 5.228547 -2.275051 -3.665240
  H 5.057880 -0.616774 -4.193666
  H 2.628218 -0.684922 -3.716662
  H 2.788678 -2.345166 -3.109677
  H 3.431736 -1.428929 -5.951172
  H 1.994916 -2.323123 -5.460595
  H 3.582436 -3.079052 -5.351532
  H 6.634115 -0.427459 -1.173908
 23
 3.079745
  C 1.021083 0.397904 0.673843
  C 2.432259 0.043664 0.324596
  H 3.167432 0.252283 1.091497
  C 2.847128 -0.490487 -0.824763
  C 4.257772 -0.695698 -1.026786
  C 5.003509 -0.890822 -2.124671
  C 4.665937 -1.306753 -3.523863
  C 3.211857 -1.637600 -3.829684
  C 3.069007 -2.171271 -5.250416
  O 6.366288 -0.738990 -1.993823
  H 0.976630 0.920038 1.625813
  H 0.403778 -0.498224 0.744943
  H 0.581061 1.035345 -0.092734
  H 2.145044 -0.705074 -1.612674
  H 4.820316 -0.623896 -0.096677
  H 5.285494 -2.186870 -3.724881
  H 5.014862 -0.525149 -4.206411
  H 2.600773 -0.740394 -3.724556
  H 2.851929 -2.387899 -3.123822
  H 3.415329 -1.434852 -5.972177
  H 2.029119 -2.402086 -5.468531
  H 3.655073 -3.078413 -5.379842
  H 6.504057 -0.362992 -1.115233
 23
 9.215314
  C 1.082248 0.470209 0.714870
  C 2.466126 0.035385 0.350348
  H 3.204117 0.096563 1.139990
  C 2.835770 -0.443530 -0.838495
  C 4.223051 -0.754414 -1.041389
  C 4.976620 -0.864375 -2.152813
  C 4.660342 -1.234210 -3.565651
  C 3.224525 -1.655349 -3.852005
  C 3.091392 -2.197639 -5.270901
  O 6.330790 -0.663803 -1.962274
  H 1.074519 0.965755 1.680836
  H 0.406712 -0.384437 0.758911
  H 0.686545 1.163868 -0.026898
  H 2.131539 -0.508605 -1.651255
  H 4.741348 -0.971955 -0.109599
  H 5.338051 -2.062654 -3.800073
  H 4.944873 -0.412204 -4.232908
  H 2.559824 -0.800002 -3.732543
  H 2.926815 -2.425830 -3.137390
  H 3.388851 -1.445604 -5.998645
  H 2.062029 -2.484470 -5.473767
  H 3.720386 -3.075138 -5.406286
  H 6.351471 -0.338058 -1.052277
 23
 16.215071
  C 1.101415 0.504476 0.615464
  C 2.491270 -0.008050 0.394134
  H 3.198340 0.039769 1.223729
  C 2.897573 -0.463718 -0.795817
  C 4.275662 -0.782504 -0.998124
  C 5.000756 -0.909406 -2.132155
  C 4.658072 -1.248747 -3.544769
  C 3.225840 -1.689421 -3.810829
  C 3.052094 -2.133999 -5.255030
  O 6.346846 -0.659164 -1.951100
  H 1.013591 1.009044 1.570671
  H 0.383680 -0.320352 0.614052
  H 0.808590 1.187023 -0.183476
  H 2.197787 -0.521675 -1.623689
  H 4.774265 -1.125136 -0.100284
  H 5.349168 -2.051453 -3.818070
  H 4.904341 -0.397922 -4.191028
  H 2.550997 -0.853780 -3.621427
  H 2.957075 -2.495303 -3.124292
  H 3.273175 -1.319293 -5.931719
  H 2.031410 -2.456923 -5.433451
  H 3.714361 -2.962372 -5.485115
  H 6.296796 -0.314591 -1.037129
 23
 33.288204
  C 1.151971 0.512198 0.804957
  C 2.507294 0.034173 0.352242
  H 3.227634 -0.054139 1.142388
  C 2.861430 -0.281993 -0.890691
  C 4.184267 -0.724488 -1.067095
  C 4.960238 -0.886047 -2.183441
  C 4.683594 -1.242457 -3.586845
  C 3.256558 -1.672869 -3.881092
  C 3.141073 -2.223075 -5.298249
  O 6.301399 -0.646786 -1.838463
  H 1.184564 0.843905 1.846235
  H 0.418929 -0.301285 0.745890
  H 0.772371 1.321453 0.174698
  H 2.190540 -0.128357 -1.736812
  H 4.552731 -1.281210 -0.207526
  H 5.356410 -2.097237 -3.776021
  H 4.985948 -0.436084 -4.269105
  H 2.583252 -0.844660 -3.791831
  H 2.927565 -2.448090 -3.183544
  H 3.479656 -1.477813 -6.009779
  H 2.106554 -2.467186 -5.541851
  H 3.772142 -3.095896 -5.428742
  H 6.002765 -0.356691 -0.950918
 23
 56.909023
  C 1.138208 0.571972 0.710329
  C 2.482826 0.011697 0.372572
  H 3.141888 -0.138214 1.220400
  C 2.948480 -0.292084 -0.838091
  C 4.309652 -0.760228 -1.021285
  C 5.073144 -0.902534 -2.200192
  C 4.725568 -1.275268 -3.598928
  C 3.283762 -1.702643 -3.850479
  C 3.107998 -2.205650 -5.278467
  O 6.308394 -0.655030 -1.912362
  H 1.108225 0.900189 1.745502
  H 0.358736 -0.178725 0.567659
  H 0.894634 1.419012 0.068605
  H 2.342997 -0.113334 -1.714303
  H 4.646759 -1.421092 -0.221530
  H 5.403989 -2.095945 -3.860512
  H 4.992812 -0.443779 -4.259351
  H 2.614370 -0.857567 -3.688520
  H 3.009390 -2.491404 -3.147201
  H 3.364119 -1.426006 -5.992698
  H 2.077429 -2.504336 -5.452658
  H 3.749202 -3.064490 -5.465212
  H 5.698612 -0.310607 -0.714053
 23
 28.324948
  C 1.148452 0.584896 0.593741
  C 2.506607 0.027639 0.330199
  H 3.102788 -0.135979 1.227790
  C 3.085566 -0.301819 -0.816348
  C 4.490270 -0.810877 -0.942626
  C 5.255280 -0.965085 -2.219293
  C 4.804539 -1.374903 -3.599461
  C 3.353336 -1.831080 -3.770031
  C 3.024280 -2.106477 -5.236692
  O 6.422416 -0.683096 -2.037384
  H 1.059606 0.930182 1.612671
  H 0.386108 -0.182680 0.409303
  H 0.924573 1.405943 -0.080718
  H 2.545266 -0.104348 -1.741628
  H 4.737401 -1.546186 -0.180567
  H 5.519220 -2.124317 -3.971397
  H 4.957116 -0.509593 -4.246406
  H 2.686457 -1.028786 -3.451439
  H 3.109446 -2.696996 -3.147654
  H 3.235525 -1.229253 -5.838914
  H 1.991677 -2.422204 -5.354145
  H 3.661461 -2.899091 -5.625589
  H 5.420168 -0.210328 -0.562404
 23
 6.549381
  C 1.164212 0.513942 0.506204
  C 2.553285 -0.059495 0.307417
  H 3.095628 -0.247636 1.227638
  C 3.162615 -0.264748 -0.845843
  C 4.557865 -0.804122 -0.935622
  C 5.323469 -0.925621 -2.236686
  C 4.734747 -1.255122 -3.589553
  C 3.276467 -1.614127 -3.735493
  C 3.019670 -2.162780 -5.135746
  O 6.522120 -0.735414 -2.154041
  H 1.009995 0.797222 1.543048
  H 0.405232 -0.222222 0.237110
  H 1.008871 1.394516 -0.121208
  H 2.656697 -0.039672 -1.763097
  H 4.701776 -1.734293 -0.351026
  H 5.320546 -2.125193 -3.916513
  H 4.997267 -0.438293 -4.256285
  H 2.646066 -0.750061 -3.561885
  H 3.028791 -2.388415 -3.008682
  H 3.261268 -1.415283 -5.893533
  H 1.972445 -2.422377 -5.250208
  H 3.613601 -3.053723 -5.318159
  H 5.289528 -0.150247 -0.373004
 23
 1.737736
  C 1.196747 0.573844 0.468883
  C 2.551719 -0.038017 0.314761
  H 3.057185 -0.321985 1.231739
  C 3.168688 -0.234264 -0.836854
  C 4.545206 -0.821610 -0.917829
  C 5.324623 -0.896051 -2.213248
  C 4.732480 -1.248005 -3.563933
  C 3.279057 -1.696606 -3.691004
  C 2.981909 -2.139856 -5.119357
  O 6.512724 -0.692921 -2.139793
  H 1.010123 0.841062 1.505802
  H 0.423383 -0.124913 0.151643
  H 1.103285 1.468509 -0.144440
  H 2.696127 0.084014 -1.749838
  H 4.571257 -1.825476 -0.472900
  H 5.372836 -2.056379 -3.936972
  H 4.917978 -0.387994 -4.219515
  H 2.597446 -0.884411 -3.440938
  H 3.077981 -2.519176 -3.002840
  H 3.131333 -1.316540 -5.811176
  H 1.950175 -2.474047 -5.205984
  H 3.634350 -2.959310 -5.415609
  H 5.215104 -0.243269 -0.267014
 23
 2.345256
  C 1.203479 0.552900 0.503344
  C 2.624524 0.118362 0.317575
  H 3.281975 0.283113 1.162307
  C 3.115411 -0.429951 -0.784007
  C 4.548306 -0.855970 -0.868676
  C 5.330712 -0.994426 -2.160645
  C 4.756753 -1.336848 -3.522887
  C 3.268321 -1.554079 -3.763529
  C 3.031573 -2.007435 -5.201831
  O 6.535697 -0.895555 -2.077671
  H 1.071784 1.045575 1.461936
  H 0.530689 -0.303615 0.461767
  H 0.904835 1.242569 -0.285026
  H 2.464678 -0.604707 -1.620305
  H 4.642586 -1.846190 -0.400181
  H 5.291418 -2.247477 -3.818202
  H 5.118193 -0.554027 -4.198009
  H 2.719975 -0.625446 -3.603029
  H 2.884825 -2.318203 -3.084812
  H 3.389185 -1.256947 -5.903341
  H 1.970651 -2.165516 -5.380828
  H 3.554852 -2.939838 -5.402703
  H 5.149792 -0.179867 -0.248349
 23
 2.196463
  C 1.164419 0.430880 0.325063
  C 2.635214 0.207768 0.145575
  H 3.285949 0.852611 0.721805
  C 3.159257 -0.667110 -0.697219
  C 4.637348 -0.846987 -0.814989
  C 5.375652 -1.118051 -2.113692
  C 4.748088 -1.444807 -3.455009
  C 3.242018 -1.463186 -3.678251
  C 2.934159 -1.743805 -5.146705
  O 6.585727 -1.054822 -2.066099
  H 0.975118 1.166871 1.100883
  H 0.663079 -0.496737 0.598872
  H 0.715266 0.785702 -0.602044
  H 2.506506 -1.299487 -1.273733
  H 4.946688 -1.653612 -0.137216
  H 5.158656 -2.423012 -3.730186
  H 5.199086 -0.731735 -4.153551
  H 2.811263 -0.498619 -3.404970
  H 2.781194 -2.244946 -3.073267
  H 3.355339 -0.967884 -5.782216
  H 1.859571 -1.774146 -5.310617
  H 3.354032 -2.700163 -5.451158
  H 5.118278 0.054528 -0.424776
 23
 -2.747810
  C 1.099596 -0.027974 -0.110635
  C 2.559986 0.113827 -0.408736
  H 2.923578 1.120336 -0.568269
  C 3.397655 -0.907364 -0.506089
  C 4.860076 -0.775782 -0.768865
  C 5.466225 -1.380714 -2.026403
  C 4.667494 -1.622541 -3.289580
  C 3.279569 -1.015104 -3.452216
  C 2.777513 -1.215410 -4.879269
  O 6.646636 -1.641084 -2.023282
  H 0.654408 0.934983 0.122241
  H 0.939169 -0.699991 0.730192
  H 0.575840 -0.444831 -0.971758
  H 3.043413 -1.915098 -0.332310
  H 5.413865 -1.222972 0.064389
  H 4.610529 -2.710532 -3.404702
  H 5.305934 -1.271183 -4.107414
  H 3.313697 0.052111 -3.229486
  H 2.578069 -1.481995 -2.762663
  H 3.439483 -0.729231 -5.592471
  H 1.782014 -0.792878 -4.994146
  H 2.730429 -2.274351 -5.123839
  H 5.146729 0.277031 -0.788190
