 18
 0.000000
  C 0.881670 0.043486 0.365056
  C 2.345816 0.061862 0.039373
  H 2.995880 0.013087 0.903805
  C 2.926209 0.129000 -1.150425
  C 2.370238 0.207594 -2.543285
  C 0.859662 0.219537 -2.754885
  C 0.531506 0.303510 -4.243029
  H 4.011243 0.130105 -1.170001
  H 0.733773 -0.017319 1.442583
  H 0.389105 -0.817476 -0.081210
  H 0.389108 0.949187 0.018482
  H 2.785181 -0.638434 -3.104291
  H 2.785180 1.111358 -3.005550
  H 0.414850 1.077748 -2.251559
  H 0.414839 -0.689869 -2.351287
  H 0.943380 1.211846 -4.678310
  H -0.545939 0.312008 -4.393596
  H 0.943385 -0.550106 -4.777735
 18
 7.425540
  C 0.791460 0.041948 0.392300
  C 2.407003 0.063294 0.013975
  H 3.061128 0.014891 0.871832
  C 2.969151 0.130438 -1.175929
  C 2.397468 0.208576 -2.560727
  C 0.884657 0.219209 -2.749102
  C 0.532616 0.302873 -4.231789
  H 4.054052 0.132188 -1.206920
  H 0.663004 -0.018827 1.469305
  H 0.299565 -0.818140 -0.049389
  H 0.299567 0.946266 0.050174
  H 2.805898 -0.637311 -3.126933
  H 2.805899 1.112790 -3.028178
  H 0.447837 1.076752 -2.237921
  H 0.447833 -0.690405 -2.337630
  H 0.936911 1.211542 -4.673507
  H -0.547003 0.310413 -4.365408
  H 0.936912 -0.550341 -4.772923
 18
 23.185259
  C 0.694810 0.041275 0.404209
  C 2.464818 0.064833 -0.013288
  H 3.100764 0.016123 0.849998
  C 3.010841 0.131898 -1.201801
  C 2.427910 0.209619 -2.579208
  C 0.913750 0.218456 -2.735793
  C 0.527399 0.301641 -4.209997
  H 4.097463 0.133970 -1.238504
  H 0.594918 -0.019325 1.478127
  H 0.221743 -0.818746 -0.042146
  H 0.221745 0.946053 0.057439
  H 2.829501 -0.636353 -3.150618
  H 2.829501 1.114498 -3.051819
  H 0.489674 1.074683 -2.212262
  H 0.489679 -0.691222 -2.311910
  H 0.920747 1.210745 -4.660783
  H -0.554776 0.307811 -4.319344
  H 0.920747 -0.550983 -4.760191
 18
 40.871830
  C 0.597011 0.039538 0.435003
  C 2.519882 0.065681 -0.028323
  H 3.142517 0.016333 0.846257
  C 3.053600 0.133536 -1.230846
  C 2.457415 0.211035 -2.604298
  C 0.940180 0.218293 -2.732885
  C 0.523423 0.300992 -4.198481
  H 4.141962 0.136057 -1.275518
  H 0.529826 -0.021267 1.512536
  H 0.140202 -0.827199 -0.018140
  H 0.140204 0.951751 0.082245
  H 2.852242 -0.634704 -3.180473
  H 2.852246 1.116228 -3.081676
  H 0.527591 1.073458 -2.198702
  H 0.527589 -0.691537 -2.298292
  H 0.906714 1.210435 -4.657161
  H -0.560718 0.305931 -4.285985
  H 0.906714 -0.551085 -4.756559
 18
 56.639637
  C 0.493026 0.037264 0.475317
  C 2.565781 0.066657 -0.045668
  H 3.121419 0.014661 0.875763
  C 3.072872 0.134514 -1.248177
  C 2.477485 0.212192 -2.624709
  C 0.956688 0.218565 -2.737619
  C 0.517191 0.300966 -4.197936
  H 4.160610 0.136923 -1.290892
  H 0.540177 -0.023739 1.556312
  H 0.104434 -0.850254 -0.005875
  H 0.104443 0.973284 0.097033
  H 2.872671 -0.631126 -3.203833
  H 2.872684 1.115317 -3.105294
  H 0.555163 1.072806 -2.194852
  H 0.555153 -0.691324 -2.294386
  H 0.892173 1.210895 -4.662263
  H -0.568549 0.305000 -4.269499
  H 0.892180 -0.550991 -4.761693
 18
 72.529995
  C 0.391124 0.036806 0.483386
  C 2.618076 0.068468 -0.077741
  H 3.152357 0.016493 0.843386
  C 3.117146 0.136360 -1.280887
  C 2.507023 0.213126 -2.641333
  C 0.987710 0.217464 -2.718170
  C 0.514027 0.299057 -4.164225
  H 4.212109 0.139397 -1.334684
  H 0.460700 -0.023308 1.548662
  H 0.024008 -0.842645 0.001793
  H 0.024010 0.964857 0.103789
  H 2.892264 -0.630522 -3.225988
  H 2.892262 1.117185 -3.127369
  H 0.599536 1.071311 -2.163191
  H 0.599537 -0.693387 -2.262767
  H 0.876963 1.209452 -4.637341
  H -0.572319 0.301602 -4.209412
  H 0.876954 -0.552335 -4.736738
 18
 86.188223
  C 0.291826 0.035618 0.504464
  C 2.672508 0.069648 -0.098642
  H 3.189318 0.016765 0.838541
  C 3.163231 0.137631 -1.303409
  C 2.536193 0.214319 -2.662458
  C 1.013256 0.216901 -2.708152
  C 0.506557 0.297963 -4.144790
  H 4.257536 0.141156 -1.365870
  H 0.393386 -0.024818 1.575424
  H -0.055839 -0.854682 0.010221
  H -0.055835 0.975868 0.113520
  H 2.912905 -0.629947 -3.252864
  H 2.912907 1.119645 -3.154142
  H 0.637688 1.069336 -2.143178
  H 0.637681 -0.693681 -2.242654
  H 0.857980 1.208804 -4.626054
  H -0.581106 0.299161 -4.166034
  H 0.857979 -0.552976 -4.725469
 18
 97.484497
  C 0.189735 0.034498 0.524300
  C 2.722614 0.071234 -0.126740
  H 3.222682 0.018170 0.813665
  C 3.205464 0.139256 -1.332201
  C 2.563046 0.215324 -2.680292
  C 1.041199 0.216117 -2.694296
  C 0.503816 0.296452 -4.118047
  H 4.300861 0.143457 -1.406626
  H 0.316985 -0.025307 1.584098
  H -0.139316 -0.851835 0.027894
  H -0.139314 0.971052 0.130758
  H 2.930116 -0.628495 -3.275371
  H 2.930117 1.120729 -3.176667
  H 0.677999 1.067708 -2.119590
  H 0.677996 -0.694719 -2.219034
  H 0.843735 1.207474 -4.606699
  H -0.583489 0.296310 -4.115554
  H 0.843729 -0.553819 -4.706074
 18
 106.495617
  C 0.087387 0.033381 0.544090
  C 2.773539 0.072583 -0.150640
  H 3.257942 0.018928 0.800239
  C 3.250457 0.140650 -1.356915
  C 2.590398 0.216395 -2.699276
  C 1.067036 0.215366 -2.680968
  C 0.497119 0.295026 -4.092738
  H 4.346831 0.145490 -1.442653
  H 0.241195 -0.026482 1.604935
  H -0.224555 -0.859447 0.038074
  H -0.224552 0.977468 0.141732
  H 2.948065 -0.628124 -3.300170
  H 2.948066 1.123152 -3.201352
  H 0.716437 1.066134 -2.096742
  H 0.716431 -0.695724 -2.196151
  H 0.824915 1.206613 -4.589091
  H -0.590231 0.293501 -4.065684
  H 0.824914 -0.554954 -4.688495
 18
 113.453588
  C -0.016665 0.032218 0.564687
  C 2.821787 0.074094 -0.177430
  H 3.292427 0.020205 0.777613
  C 3.292969 0.142184 -1.384104
  C 2.615452 0.217370 -2.716571
  C 1.093634 0.214533 -2.666239
  C 0.492885 0.293413 -4.064207
  H 4.388765 0.147756 -1.482822
  H 0.158624 -0.027166 1.617048
  H -0.312844 -0.858187 0.055531
  H -0.312842 0.974254 0.158934
  H 2.962876 -0.626791 -3.322371
  H 2.962880 1.124329 -3.223566
  H 0.755602 1.064309 -2.073221
  H 0.755599 -0.696558 -2.172575
  H 0.808553 1.205191 -4.567546
  H -0.593244 0.290527 -4.013052
  H 0.808547 -0.555956 -4.666912
 18
 118.671112
  C -0.121625 0.031077 0.584937
  C 2.869840 0.075470 -0.201805
  H 3.327714 0.021192 0.760111
  C 3.336280 0.143604 -1.409235
  C 2.639830 0.218334 -2.733630
  C 1.118298 0.213671 -2.650936
  C 0.486066 0.291783 -4.035275
  H 4.432039 0.149905 -1.520888
  H 0.074691 -0.028253 1.636312
  H -0.403718 -0.863195 0.068445
  H -0.403714 0.977778 0.172333
  H 2.977119 -0.626299 -3.345037
  H 2.977120 1.126383 -3.246135
  H 0.792764 1.062821 -2.049274
  H 0.792760 -0.697775 -2.148612
  H 0.789324 1.204095 -4.545643
  H -0.598866 0.287521 -3.959719
  H 0.789324 -0.557336 -4.645035
 18
 122.467023
  C -0.228290 0.029822 0.607157
  C 2.915472 0.076885 -0.226879
  H 3.362759 0.022398 0.738740
  C 3.376795 0.145054 -1.434956
  C 2.661408 0.219212 -2.749209
  C 1.142224 0.212780 -2.635169
  C 0.480336 0.290072 -4.004994
  H 4.471103 0.152131 -1.560351
  H -0.014779 -0.029135 1.651930
  H -0.497668 -0.862792 0.087518
  H -0.497665 0.975232 0.191238
  H 2.988169 -0.625218 -3.365544
  H 2.988171 1.127618 -3.266637
  H 0.828998 1.061004 -2.025774
  H 0.828995 -0.698615 -2.125057
  H 0.771408 1.202600 -4.521669
  H -0.602481 0.284484 -3.905935
  H 0.771405 -0.558543 -4.621039
 18
 125.151581
  C -0.336639 0.028509 0.630429
  C 2.959696 0.078179 -0.249813
  H 3.397515 0.023447 0.720153
  C 3.415985 0.146414 -1.459050
  C 2.680994 0.220031 -2.763721
  C 1.163642 0.211853 -2.618732
  C 0.472521 0.288337 -3.974219
  H 4.509150 0.154267 -1.598206
  H -0.106582 -0.030347 1.673407
  H -0.594945 -0.866397 0.105287
  H -0.594942 0.976813 0.209301
  H 2.997392 -0.624685 -3.385268
  H 2.997391 1.129304 -3.286295
  H 0.862388 1.059559 -2.001892
  H 0.862385 -0.699860 -2.101163
  H 0.751492 1.201314 -4.496999
  H -0.608060 0.281444 -3.852030
  H 0.751490 -0.560044 -4.596385
 18
 126.959232
  C -0.447800 0.027045 0.656371
  C 3.000579 0.079430 -0.272009
  H 3.430908 0.024541 0.700747
  C 3.451261 0.147731 -1.482420
  C 2.696919 0.220745 -2.776373
  C 1.182723 0.210890 -2.601662
  C 0.464116 0.286541 -3.942407
  H 4.542361 0.156375 -1.635599
  H -0.204043 -0.031518 1.694168
  H -0.696238 -0.866673 0.128507
  H -0.696234 0.974476 0.232402
  H 3.002859 -0.623864 -3.402629
  H 3.002864 1.130452 -3.303647
  H 0.893164 1.057830 -1.978222
  H 0.893162 -0.700803 -2.077452
  H 0.731318 1.199739 -4.470658
  H -0.613592 0.278400 -3.798101
  H 0.731316 -0.561446 -4.570037
