 16
 0.000000
  C 0.981618 0.139502 0.399176
  C 2.430247 0.086286 0.268436
  H 3.037323 0.419767 1.097851
  C 3.060841 -0.369825 -0.866240
  C 4.459069 -0.412265 -0.975587
  C 5.160392 -0.853723 -2.076975
  C 4.612913 -1.355261 -3.327022
  H 3.531421 -1.372814 -3.371037
  H 6.240635 -0.828190 -2.014502
  H 0.661637 0.525475 1.359253
  H 0.550816 -0.852499 0.236975
  H 0.552009 0.744290 -0.404421
  H 2.452140 -0.703396 -1.693944
  H 5.028243 -0.068854 -0.122089
  H 5.011949 -2.357923 -3.516439
  H 5.012021 -0.761598 -4.156907
 16
 8.108178
  C 0.879873 0.149999 0.425224
  C 2.486068 0.087182 0.270708
  H 3.095776 0.419402 1.096906
  C 3.099497 -0.368702 -0.863387
  C 4.497806 -0.415926 -0.984723
  C 5.188879 -0.860519 -2.093924
  C 4.629343 -1.359436 -3.337502
  H 3.546746 -1.373260 -3.372317
  H 6.270105 -0.838778 -2.040846
  H 0.573055 0.536652 1.387005
  H 0.451744 -0.840312 0.267208
  H 0.452902 0.756404 -0.374169
  H 2.481505 -0.700195 -1.685853
  H 5.075863 -0.074346 -0.135805
  H 5.023272 -2.362560 -3.530443
  H 5.023390 -0.767902 -4.170228
 16
 25.220235
  C 0.779601 0.156257 0.440622
  C 2.544574 0.088228 0.273445
  H 3.140504 0.422040 1.103327
  C 3.131141 -0.365909 -0.856028
  C 4.532308 -0.418270 -0.990511
  C 5.211594 -0.866930 -2.109904
  C 4.638538 -1.361476 -3.342779
  H 3.554448 -1.370944 -3.366945
  H 6.294078 -0.849519 -2.067528
  H 0.498351 0.543356 1.403396
  H 0.376292 -0.835649 0.288366
  H 0.377442 0.767652 -0.355772
  H 2.501829 -0.695092 -1.672414
  H 5.120707 -0.078708 -0.146814
  H 5.027573 -2.365423 -3.540945
  H 5.027804 -0.772973 -4.179815
 16
 44.196444
  C 0.668677 0.166274 0.465326
  C 2.593018 0.095211 0.291056
  H 3.173801 0.433332 1.131381
  C 3.170247 -0.366813 -0.857701
  C 4.571808 -0.423490 -1.003479
  C 5.238393 -0.873950 -2.127433
  C 4.651396 -1.366553 -3.355665
  H 3.567430 -1.372339 -3.370884
  H 6.321167 -0.859969 -2.093509
  H 0.411284 0.556473 1.435653
  H 0.291652 -0.837224 0.316496
  H 0.292812 0.788260 -0.336698
  H 2.533945 -0.694070 -1.668827
  H 5.167985 -0.086111 -0.165513
  H 5.036659 -2.371978 -3.559351
  H 5.037014 -0.780813 -4.197691
 16
 60.620202
  C 0.570671 0.159833 0.448166
  C 2.658306 0.102837 0.311556
  H 3.179257 0.453888 1.184187
  C 3.208284 -0.360627 -0.840293
  C 4.596741 -0.422999 -1.002290
  C 5.239256 -0.874316 -2.129006
  C 4.627752 -1.364113 -3.349893
  H 3.543488 -1.363543 -3.348430
  H 6.322133 -0.865375 -2.108216
  H 0.374900 0.555281 1.431254
  H 0.293860 -0.876943 0.292710
  H 0.295381 0.801212 -0.381690
  H 2.563106 -0.684395 -1.641888
  H 5.203833 -0.089010 -0.173720
  H 5.004520 -2.371221 -3.563425
  H 5.004367 -0.783804 -4.200342
 16
 76.657910
  C 0.461998 0.157375 0.438128
  C 2.710567 0.104453 0.321282
  H 3.184866 0.462062 1.208316
  C 3.235607 -0.355704 -0.818775
  C 4.649161 -0.426407 -1.011167
  C 5.256888 -0.877680 -2.139215
  C 4.618244 -1.360093 -3.341991
  H 3.534743 -1.349528 -3.316757
  H 6.339228 -0.877789 -2.141443
  H 0.320039 0.553470 1.420293
  H 0.255421 -0.877416 0.290539
  H 0.258031 0.801454 -0.385711
  H 2.578448 -0.680628 -1.615952
  H 5.273538 -0.094881 -0.194530
  H 4.981639 -2.368970 -3.563017
  H 4.981522 -0.783724 -4.199034
 16
 86.745631
  C 0.390968 0.118993 0.373914
  C 2.802387 0.142231 0.354348
  H 3.131373 0.520691 1.290807
  C 3.298559 -0.301153 -0.749556
  C 4.724630 -0.420372 -0.983380
  C 5.255526 -0.886255 -2.137093
  C 4.558055 -1.360260 -3.338149
  H 3.474849 -1.319367 -3.262672
  H 6.339470 -0.913878 -2.194218
  H 0.261697 0.513216 1.359362
  H 0.290797 -0.932065 0.222025
  H 0.265122 0.769807 -0.461960
  H 2.659189 -0.618958 -1.563858
  H 5.369118 -0.116499 -0.174833
  H 4.873705 -2.382435 -3.560238
  H 4.888151 -0.777950 -4.201598
 16
 92.614796
  C 0.314808 0.093130 0.323650
  C 2.883816 0.166750 0.392176
  H 3.097495 0.561448 1.355415
  C 3.363009 -0.277768 -0.698222
  C 4.801186 -0.423941 -0.981555
  C 5.259512 -0.891319 -2.140584
  C 4.510061 -1.353237 -3.326532
  H 3.434858 -1.291856 -3.206243
  H 6.336730 -0.941198 -2.243723
  H 0.181319 0.492599 1.307490
  H 0.276248 -0.967624 0.175407
  H 0.247471 0.745357 -0.524186
  H 2.731527 -0.596612 -1.518680
  H 5.468128 -0.130813 -0.191430
  H 4.783703 -2.380940 -3.550030
  H 4.809089 -0.769807 -4.193261
 16
 96.972131
  C 0.219008 0.089289 0.304443
  C 2.945779 0.168222 0.419517
  H 3.106355 0.567076 1.388413
  C 3.411598 -0.278995 -0.669825
  C 4.845189 -0.422418 -0.986618
  C 5.270061 -0.892596 -2.154176
  C 4.491981 -1.351530 -3.324567
  H 3.416175 -1.281529 -3.178659
  H 6.345943 -0.952634 -2.282376
  H 0.096291 0.492128 1.289095
  H 0.209959 -0.970908 0.160208
  H 0.191904 0.742000 -0.542946
  H 2.775743 -0.605482 -1.488905
  H 5.527589 -0.123174 -0.209795
  H 4.751321 -2.386205 -3.549860
  H 4.773532 -0.766286 -4.199873
 16
 100.047558
  C 0.123452 0.085126 0.281700
  C 3.007058 0.169947 0.449033
  H 3.112469 0.572157 1.424731
  C 3.459179 -0.278889 -0.640584
  C 4.887289 -0.421331 -0.993255
  C 5.278192 -0.894707 -2.170675
  C 4.470952 -1.350034 -3.321031
  H 3.401419 -1.272490 -3.148859
  H 6.348890 -0.963759 -2.325364
  H 0.010197 0.488959 1.265716
  H 0.143490 -0.976012 0.140680
  H 0.135792 0.740548 -0.564804
  H 2.819531 -0.610727 -1.454343
  H 5.584314 -0.118130 -0.233552
  H 4.714804 -2.385223 -3.547455
  H 4.731347 -0.766012 -4.200198
 16
 102.166312
  C 0.023861 0.082808 0.264917
  C 3.064411 0.172450 0.474154
  H 3.126780 0.574815 1.451999
  C 3.504384 -0.277298 -0.617894
  C 4.926021 -0.422134 -1.001580
  C 5.287920 -0.897453 -2.186161
  C 4.452749 -1.349619 -3.318731
  H 3.385524 -1.265508 -3.122217
  H 6.355188 -0.973096 -2.364302
  H -0.084303 0.486543 1.249763
  H 0.062998 -0.977048 0.125663
  H 0.062462 0.739800 -0.578294
  H 2.857093 -0.612168 -1.427233
  H 5.638500 -0.117427 -0.255498
  H 4.684572 -2.388590 -3.548349
  H 4.694880 -0.764531 -4.204342
 16
 103.669796
  C -0.080202 0.082701 0.253265
  C 3.117719 0.174256 0.495790
  H 3.147428 0.576321 1.476268
  C 3.546270 -0.275912 -0.599623
  C 4.960744 -0.424426 -1.012173
  C 5.296959 -0.901349 -2.203839
  C 4.436749 -1.349754 -3.317286
  H 3.375078 -1.260485 -3.098408
  H 6.359478 -0.981957 -2.403639
  H -0.186552 0.485306 1.238475
  H -0.030510 -0.977472 0.114117
  H -0.025000 0.742166 -0.588094
  H 2.889924 -0.611850 -1.402764
  H 5.687106 -0.120249 -0.280418
  H 4.657555 -2.389028 -3.550346
  H 4.660931 -0.765289 -4.206549
 16
 104.686835
  C -0.187197 0.083047 0.241764
  C 3.168104 0.175671 0.515963
  H 3.169279 0.575950 1.496655
  C 3.585741 -0.274193 -0.582589
  C 4.992007 -0.427051 -1.022803
  C 5.302935 -0.904857 -2.220428
  C 4.416996 -1.349970 -3.316180
  H 3.359202 -1.255811 -3.074640
  H 6.361210 -0.989839 -2.441628
  H -0.293795 0.484029 1.227567
  H -0.130599 -0.975810 0.102022
  H -0.119638 0.743987 -0.596386
  H 2.919429 -0.610260 -1.379366
  H 5.732828 -0.124126 -0.304354
  H 4.627750 -2.391389 -3.553659
  H 4.623852 -0.764946 -4.210495
 16
 105.316795
  C -0.299881 0.084655 0.232745
  C 3.213170 0.176488 0.533658
  H 3.191201 0.574973 1.515412
  C 3.619957 -0.272785 -0.568508
  C 5.017271 -0.430774 -1.035157
  C 5.304368 -0.909354 -2.238884
  C 4.395022 -1.350010 -3.315472
  H 3.343236 -1.251250 -3.052270
  H 6.357417 -0.998422 -2.480560
  H -0.407209 0.483666 1.219246
  H -0.239744 -0.974382 0.091436
  H -0.223888 0.747965 -0.603546
  H 2.942565 -0.607842 -1.358170
  H 5.771679 -0.130339 -0.330185
  H 4.595652 -2.391628 -3.557328
  H 4.584967 -0.765320 -4.212946
