14

H 1.4341020315643813 -0.0739031148581453 0.04297672813863536
C 2.503946 -0.082197 0.026695
C 3.21906 -0.595156 -0.980332
C 4.656668 -0.606995 -1.003571
C 5.376034 -1.12261 -2.015808
C 6.81395 -1.132321 -2.03487
C 7.535184 -1.643067 -3.037555
H 8.604820040544146 -1.6557357790385756 -3.062419488868945
H 3.005352 0.352976 0.881017
H 2.707091 -1.028434 -1.830918
H 5.162471 -0.1724 -0.150392
H 4.871675 -1.557494 -2.869558
H 7.319056 -0.697397 -1.181044
H 7.038273 -2.079808 -3.894936
