19
 0
 C -1.07822163 0.19011940 0.03520061
 C -1.87641385 -1.01555818 -0.44572802
 C -1.50990403 -1.34521281 -1.89180751
 C -1.75747973 -2.28135723 0.40481426
 C -0.78833565 -2.36148693 1.55647947
 O -2.44991062 -3.26985195 0.13616177
 H -1.28103436 1.06360073 -0.59415534
 H 0.00000000 0.00000000 0.00000000
 H -1.34725037 0.45693021 1.06257857
 H -2.93730356 -0.73509613 -0.40924601
 H -0.46561354 -1.66648652 -1.97169232
 H -1.65180011 -0.47394294 -2.54007828
 H -2.13477559 -2.15546098 -2.28307037
 H -0.27254424 -1.42402033 1.75591313
 H -0.03753707 -3.12485120 1.33549096
 H -1.34086890 -2.63728206 2.45941041
 O 2.95284803 -0.16801267 -0.05299053
 H 3.09107554 -0.44436833 -0.97140631
 H 2.00000000 0.00000000 0.00000000
