 15
 0.000000
  H 1.372533 0.176726 0.491991
  C 2.450461 0.144467 0.410903
  C 3.261123 0.600508 1.544513
  C 2.507539 1.085544 2.752009
  C 3.386575 1.545105 3.895267
  C 3.005101 -0.315835 -0.734195
  H 4.071759 -0.372506 -0.875421
  H 3.953627 1.380583 1.185816
  H 3.953993 -0.210543 1.825125
  H 1.841323 0.291247 3.114240
  H 1.840769 1.909373 2.464207
  H 4.032146 0.744087 4.251893
  H 2.778384 1.880415 4.730757
  H 4.031529 2.370665 3.598475
  H 2.385251 -0.644111 -1.550619
 15
 11.358396
  H 1.352915 0.193354 0.533219
  C 2.428050 0.159833 0.449053
  C 3.241658 0.608701 1.564803
  C 2.497890 1.096606 2.779512
  C 3.390989 1.553129 3.915260
  C 3.040722 -0.355942 -0.833892
  H 4.104974 -0.413135 -0.976266
  H 3.935330 1.385186 1.200148
  H 3.935698 -0.203874 1.838607
  H 1.832075 0.305551 3.147225
  H 1.831512 1.921863 2.497960
  H 4.036617 0.749596 4.265485
  H 2.792330 1.890682 4.756433
  H 4.035964 2.376114 3.612158
  H 2.415616 -0.681863 -1.644451
 15
 32.748083
  H 1.299311 0.173928 0.483897
  C 2.371254 0.182521 0.505079
  C 3.183561 0.618748 1.589612
  C 2.462038 1.106385 2.803994
  C 3.422197 1.543864 3.892246
  C 3.103206 -0.378357 -0.889343
  H 4.176885 -0.394112 -0.927895
  H 3.895727 1.373982 1.228193
  H 3.896174 -0.176372 1.850897
  H 1.805423 0.318817 3.192223
  H 1.804755 1.943238 2.539814
  H 4.060141 0.722050 4.210542
  H 2.869139 1.892470 4.761310
  H 4.059250 2.358220 3.553441
  H 2.465432 -0.699927 -1.689519
 15
 57.206094
  H 1.270669 0.170515 0.476012
  C 2.342790 0.195433 0.537646
  C 3.155250 0.621671 1.597547
  C 2.439931 1.122048 2.843175
  C 3.431956 1.552125 3.912595
  C 3.151639 -0.417303 -0.986569
  H 4.222227 -0.418366 -0.989189
  H 3.877559 1.375534 1.226523
  H 3.877825 -0.179139 1.850878
  H 1.794505 0.342808 3.240489
  H 1.794043 1.959270 2.591036
  H 4.065926 0.724288 4.216667
  H 2.903041 1.905321 4.792414
  H 4.065135 2.360718 3.559042
  H 2.494609 -0.731799 -1.769445
 15
 81.027036
  H 1.246409 0.178539 0.496062
  C 2.316294 0.208201 0.569415
  C 3.135759 0.630580 1.619759
  C 2.430469 1.134017 2.872991
  C 3.440803 1.560044 3.932253
  C 3.192738 -0.458331 -1.088726
  H 4.261552 -0.455516 -1.081596
  H 3.857841 1.379677 1.244899
  H 3.858082 -0.169487 1.866978
  H 1.783410 0.350552 3.279183
  H 1.782950 1.980429 2.624314
  H 4.074843 0.727364 4.229335
  H 2.923243 1.916379 4.819816
  H 4.074033 2.367273 3.570271
  H 2.526172 -0.769241 -1.862722
 15
 102.738994
  H 1.220198 0.186473 0.515972
  C 2.289217 0.222704 0.605511
  C 3.115104 0.639598 1.642250
  C 2.421404 1.146587 2.904307
  C 3.446685 1.565674 3.946232
  C 3.234799 -0.497352 -1.185850
  H 4.303805 -0.488968 -1.164821
  H 3.839005 1.386065 1.261502
  H 3.839247 -0.162689 1.883314
  H 1.780169 0.368342 3.315582
  H 1.779735 1.992760 2.662877
  H 4.078398 0.730045 4.234246
  H 2.943114 1.924258 4.839279
  H 4.077614 2.368732 3.575618
  H 2.556021 -0.804696 -1.951122
 15
 121.451602
  H 1.195341 0.193040 0.532747
  C 2.261195 0.235768 0.638453
  C 3.093768 0.647990 1.663665
  C 2.412341 1.158840 2.934876
  C 3.456138 1.572692 3.963485
  C 3.277421 -0.537283 -1.285545
  H 4.344695 -0.523003 -1.250112
  H 3.818014 1.390523 1.277644
  H 3.818185 -0.155210 1.898318
  H 1.772082 0.379900 3.353577
  H 1.771787 2.010657 2.698107
  H 4.087223 0.732554 4.243915
  H 2.964911 1.934362 4.863744
  H 4.086521 2.373620 3.584047
  H 2.588459 -0.840732 -2.041527
 15
 137.009906
  H 1.169479 0.200315 0.551751
  C 2.234005 0.248586 0.671419
  C 3.072472 0.656386 1.685760
  C 2.405006 1.171743 2.967137
  C 3.463832 1.579376 3.979649
  C 3.320238 -0.577164 -1.385670
  H 4.386715 -0.557552 -1.337284
  H 3.797326 1.395799 1.293507
  H 3.797340 -0.148998 1.914080
  H 1.768492 0.396097 3.391649
  H 1.768411 2.025274 2.736313
  H 4.093008 0.736499 4.252311
  H 2.985526 1.943470 4.884941
  H 4.092450 2.376537 3.592242
  H 2.621059 -0.877000 -2.133391
 15
 149.543202
  H 1.144551 0.207787 0.570839
  C 2.206923 0.260479 0.701661
  C 3.050630 0.664870 1.707712
  C 2.398193 1.184566 2.999185
  C 3.473130 1.586939 3.998095
  C 3.363237 -0.618205 -1.488386
  H 4.428163 -0.593876 -1.428605
  H 3.775410 1.400944 1.309470
  H 3.775269 -0.142359 1.929671
  H 1.763384 0.409699 3.430246
  H 1.763417 2.042044 2.773276
  H 4.101577 0.740470 4.263956
  H 3.006469 1.953720 4.909424
  H 4.101061 2.381803 3.602942
  H 2.655461 -0.914564 -2.228119
 15
 159.042241
  H 1.118164 0.217738 0.596072
  C 2.182362 0.271290 0.729309
  C 3.025982 0.673856 1.730961
  C 2.392570 1.198616 3.034276
  C 3.481727 1.595538 4.019066
  C 3.406745 -0.660685 -1.594614
  H 4.473723 -0.635259 -1.532683
  H 3.751029 1.405421 1.325118
  H 3.750663 -0.135488 1.944594
  H 1.760733 0.426691 3.472024
  H 1.760852 2.058562 2.814846
  H 4.109005 0.746879 4.278106
  H 3.027497 1.964566 4.935329
  H 4.108487 2.387068 3.617121
  H 2.693536 -0.956000 -2.332658
 15
 164.685223
  H 1.095236 0.232021 0.631444
  C 2.161363 0.281438 0.754418
  C 3.001987 0.684170 1.756373
  C 2.387953 1.213449 3.071215
  C 3.488912 1.606095 4.045296
  C 3.447090 -0.705692 -1.706154
  H 4.519051 -0.686849 -1.661277
  H 3.727275 1.411523 1.342366
  H 3.726827 -0.127695 1.961120
  H 1.758003 0.443100 3.515523
  H 1.757914 2.076694 2.857717
  H 4.116427 0.755447 4.299197
  H 3.044513 1.976867 4.966227
  H 4.115721 2.395664 3.638384
  H 2.736810 -1.003670 -2.451662
 15
 167.711461
  H 1.073869 0.248875 0.673848
  C 2.143139 0.292181 0.781925
  C 2.982218 0.694984 1.783986
  C 2.384669 1.228114 3.107678
  C 3.494154 1.616849 4.071646
  C 3.484173 -0.750580 -1.818191
  H 4.560201 -0.743380 -1.803140
  H 3.707843 1.419340 1.362352
  H 3.707199 -0.120169 1.981439
  H 1.756602 0.459745 3.557071
  H 1.756576 2.093448 2.898856
  H 4.121557 0.765295 4.321556
  H 3.057805 1.988999 4.995490
  H 4.120916 2.404166 3.660981
  H 2.783735 -1.052916 -2.575619
 15
 169.027416
  H 1.054289 0.266988 0.718762
  C 2.126107 0.303856 0.810854
  C 2.965183 0.706287 1.811917
  C 2.381883 1.242291 3.142957
  C 3.499781 1.627574 4.098159
  C 3.519025 -0.795528 -1.930066
  H 4.598886 -0.803172 -1.952053
  H 3.690810 1.428129 1.383638
  H 3.690074 -0.111659 2.002683
  H 1.755223 0.474996 3.596682
  H 1.755034 2.109708 2.938076
  H 4.127520 0.774853 4.344483
  H 3.070291 2.000881 5.025132
  H 4.126657 2.413400 3.684168
  H 2.832571 -1.103978 -2.703275
 15
 169.258367
  H 1.035624 0.284790 0.762943
  C 2.109591 0.316189 0.841509
  C 2.950420 0.717421 1.839518
  C 2.380327 1.255862 3.176646
  C 3.506328 1.637296 4.122157
  C 3.552991 -0.839940 -2.040752
  H 4.633941 -0.862776 -2.100699
  H 3.676301 1.436743 1.404895
  H 3.675525 -0.103154 2.024037
  H 1.755261 0.489917 3.634265
  H 1.754916 2.124937 2.975522
  H 4.133764 0.783489 4.364572
  H 3.084034 2.011625 5.051862
  H 4.132776 2.421331 3.704645
  H 2.882712 -1.154433 -2.829340
