12

C 1.003935 0.138705 0.361449
C 2.483603 0.155402 0.397685
C 3.243866 0.620217 1.583181
H 2.6806118948749176 0.9517171526554411 2.4303837277158413
C 3.114431 -0.295082 -0.7501
H 4.165503662929472 -0.37304176226155183 -0.9346766309977258
H 0.542702 0.495282 1.275972
H 0.641729 -0.876695 0.177128
H 0.645441 0.760851 -0.459674
H 3.90007 1.439601 1.267525
H 3.901003 -0.194862 1.907772
H 2.451184 -0.608121 -1.54023
