 19
 0.000000
  C 0.971429 0.177299 0.503154
  C 2.422969 0.115296 0.345866
  H 3.065397 0.442152 1.151619
  C 2.984087 -0.352793 -0.822023
  C 4.374752 -0.424032 -1.001365
  C 5.077678 -0.864027 -2.101660
  C 4.651747 -1.384349 -3.402199
  C 3.182203 -1.525720 -3.755202
  H 3.091485 -1.927624 -4.760231
  H 6.157281 -0.828737 -2.014158
  H 0.667937 0.564335 1.471692
  H 0.534944 -0.814672 0.362390
  H 0.532581 0.798561 -0.282686
  H 2.320471 -0.668842 -1.609325
  H 4.970833 -0.087475 -0.161160
  H 5.146511 -2.359792 -3.517376
  H 5.146377 -0.757387 -4.158350
  H 2.679137 -0.561841 -3.734816
  H 2.679412 -2.209937 -3.075812
 19
 3.243039
  C 0.984532 0.156730 0.539033
  C 2.398554 0.109228 0.332256
  H 3.059004 0.440225 1.126432
  C 2.960241 -0.353761 -0.834048
  C 4.347951 -0.415540 -1.002820
  C 5.060345 -0.852600 -2.094540
  C 4.649091 -1.379027 -3.396271
  C 3.183630 -1.531406 -3.760371
  H 3.106131 -1.937388 -4.765791
  H 6.138290 -0.806351 -1.991659
  H 0.670815 0.569268 1.492344
  H 0.491775 -0.804314 0.372308
  H 0.734136 0.783256 -0.286489
  H 2.302495 -0.673584 -1.624424
  H 4.935575 -0.074318 -0.159220
  H 5.155002 -2.349476 -3.507416
  H 5.148906 -0.754171 -4.151077
  H 2.673319 -0.571549 -3.750455
  H 2.679246 -2.218753 -3.085650
 19
 8.085187
  C 0.966852 0.126065 0.573533
  C 2.388625 0.099214 0.340307
  H 3.065621 0.430396 1.120448
  C 2.947003 -0.348052 -0.833915
  C 4.342584 -0.395755 -1.007201
  C 5.060289 -0.836303 -2.102117
  C 4.651046 -1.379548 -3.398551
  C 3.185069 -1.547839 -3.755681
  H 3.109471 -1.967048 -4.756723
  H 6.137663 -0.775346 -1.999911
  H 0.645870 0.519137 1.546330
  H 0.395427 -0.773237 0.272038
  H 0.927546 0.842230 -0.247200
  H 2.293111 -0.673669 -1.623808
  H 4.930561 -0.045043 -0.165850
  H 5.165941 -2.344512 -3.503346
  H 5.144129 -0.761680 -4.161642
  H 2.667663 -0.591937 -3.759935
  H 2.688568 -2.233389 -3.073632
 19
 13.800551
  C 0.959667 0.104077 0.597895
  C 2.378527 0.102975 0.344833
  H 3.056683 0.436796 1.125170
  C 2.944679 -0.344373 -0.841006
  C 4.329074 -0.382795 -1.011748
  C 5.051075 -0.821766 -2.098754
  C 4.651490 -1.380975 -3.400458
  C 3.186262 -1.564278 -3.761826
  H 3.118061 -1.993053 -4.759778
  H 6.128559 -0.750367 -1.993845
  H 0.631415 0.452249 1.562788
  H 0.360454 -0.716474 0.206188
  H 1.083689 0.880518 -0.182097
  H 2.295333 -0.676448 -1.631187
  H 4.911979 -0.024373 -0.172750
  H 5.173196 -2.344613 -3.494228
  H 5.140620 -0.762045 -4.166631
  H 2.662005 -0.612627 -3.777299
  H 2.693536 -2.248437 -3.075982
 19
 19.229788
  C 0.953376 0.081113 0.615526
  C 2.367574 0.108278 0.337159
  H 3.044470 0.442298 1.113578
  C 2.936428 -0.339441 -0.850926
  C 4.327441 -0.374411 -1.021630
  C 5.050163 -0.814908 -2.102353
  C 4.655483 -1.381482 -3.398367
  C 3.191259 -1.569409 -3.756637
  H 3.124007 -2.004818 -4.751173
  H 6.126248 -0.739777 -1.998300
  H 0.611834 0.407394 1.585389
  H 0.333029 -0.683059 0.170507
  H 1.207620 0.900382 -0.148123
  H 2.286481 -0.677157 -1.640764
  H 4.909878 -0.010583 -0.183449
  H 5.177161 -2.344790 -3.484776
  H 5.141068 -0.764716 -4.167224
  H 2.665624 -0.618520 -3.778891
  H 2.700680 -2.250517 -3.065991
 19
 22.342294
  C 0.953489 0.067178 0.643513
  C 2.351385 0.117122 0.335587
  H 3.029926 0.454031 1.108152
  C 2.925910 -0.335354 -0.855676
  C 4.318840 -0.364251 -1.024095
  C 5.047782 -0.803257 -2.094045
  C 4.663865 -1.386534 -3.405978
  C 3.198035 -1.587468 -3.776795
  H 3.141280 -2.029879 -4.770628
  H 6.123591 -0.719757 -1.982669
  H 0.621311 0.364401 1.613730
  H 0.302216 -0.635599 0.129056
  H 1.305493 0.936392 -0.060677
  H 2.275929 -0.679188 -1.642212
  H 4.898854 0.006836 -0.185554
  H 5.190509 -2.349031 -3.481857
  H 5.149281 -0.768122 -4.175100
  H 2.666585 -0.639789 -3.809418
  H 2.706730 -2.268483 -3.085975
 19
 24.295175
  C 0.955111 0.051425 0.654884
  C 2.343627 0.124418 0.332181
  H 3.009528 0.458575 1.100024
  C 2.924055 -0.332130 -0.865657
  C 4.305575 -0.356744 -1.030063
  C 5.042806 -0.798087 -2.098983
  C 4.667786 -1.389890 -3.410084
  C 3.213174 -1.598718 -3.782351
  H 3.162920 -2.044945 -4.769842
  H 6.116741 -0.708817 -1.984409
  H 0.617978 0.323121 1.647639
  H 0.295275 -0.582458 0.092465
  H 1.388751 0.963904 0.011981
  H 2.271989 -0.680135 -1.652099
  H 4.880337 0.018640 -0.193320
  H 5.194697 -2.345328 -3.478440
  H 5.148685 -0.775717 -4.176267
  H 2.678702 -0.655055 -3.821831
  H 2.724232 -2.277873 -3.090145
 19
 25.713563
  C 0.949246 0.023287 0.634808
  C 2.343043 0.129252 0.316885
  H 3.023379 0.468974 1.113856
  C 2.929289 -0.330347 -0.876884
  C 4.319549 -0.348872 -1.039465
  C 5.056893 -0.794139 -2.108726
  C 4.674507 -1.386856 -3.398997
  C 3.201128 -1.592530 -3.747419
  H 3.130644 -2.048079 -4.737390
  H 6.132384 -0.704899 -2.002234
  H 0.601780 0.262324 1.616892
  H 0.279888 -0.560142 0.014796
  H 1.455474 0.980118 0.044638
  H 2.284363 -0.681604 -1.656216
  H 4.894320 0.030903 -0.203310
  H 5.203735 -2.357146 -3.465647
  H 5.152183 -0.768365 -4.182633
  H 2.669014 -0.645105 -3.783401
  H 2.720155 -2.264587 -3.041530
 19
 26.752942
  C 0.947716 0.010473 0.648968
  C 2.342036 0.142049 0.322952
  H 3.026228 0.453339 1.113585
  C 2.926191 -0.322793 -0.876690
  C 4.311591 -0.339429 -1.043357
  C 5.050974 -0.785742 -2.107969
  C 4.679978 -1.390119 -3.402867
  C 3.215375 -1.610862 -3.763775
  H 3.159271 -2.069724 -4.747440
  H 6.124614 -0.689574 -1.997968
  H 0.595102 0.222919 1.643852
  H 0.270912 -0.494828 -0.019202
  H 1.516534 1.012313 0.118633
  H 2.274927 -0.676113 -1.654674
  H 4.887560 0.046219 -0.209915
  H 5.209512 -2.345027 -3.458961
  H 5.151720 -0.777472 -4.177197
  H 2.676439 -0.670366 -3.810155
  H 2.735359 -2.283141 -3.060860
 19
 28.528453
  C 0.951490 -0.005769 0.643267
  C 2.335161 0.150889 0.322728
  H 3.023454 0.453464 1.120475
  C 2.925981 -0.315435 -0.877744
  C 4.315225 -0.332523 -1.044395
  C 5.050476 -0.781074 -2.105664
  C 4.672167 -1.392503 -3.404881
  C 3.230509 -1.606374 -3.751498
  H 3.169164 -2.072841 -4.741254
  H 6.112313 -0.687045 -1.997648
  H 0.592325 0.204250 1.636032
  H 0.278844 -0.488154 -0.045161
  H 1.561493 1.013553 0.127853
  H 2.287514 -0.660772 -1.637703
  H 4.893333 0.053318 -0.212815
  H 5.199626 -2.354731 -3.464107
  H 5.141584 -0.785585 -4.187945
  H 2.697485 -0.666087 -3.797945
  H 2.754171 -2.273423 -3.042618
 19
 29.713135
  C 0.950008 -0.025089 0.643840
  C 2.342974 0.160278 0.320903
  H 3.031445 0.447547 1.117764
  C 2.938770 -0.308663 -0.881089
  C 4.321527 -0.324734 -1.042051
  C 5.062906 -0.777497 -2.103906
  C 4.686825 -1.390719 -3.396351
  C 3.220093 -1.605774 -3.745594
  H 3.154578 -2.076627 -4.734187
  H 6.133142 -0.683588 -1.992594
  H 0.584842 0.186713 1.636475
  H 0.281111 -0.486858 -0.061071
  H 1.606228 1.027029 0.128005
  H 2.284167 -0.663513 -1.662086
  H 4.897314 0.061904 -0.208709
  H 5.210668 -2.351430 -3.450306
  H 5.156810 -0.785934 -4.180491
  H 2.687187 -0.661527 -3.794854
  H 2.741456 -2.269454 -3.031418
 19
 31.073072
  C 0.961576 -0.039097 0.644198
  C 2.342110 0.171863 0.325572
  H 3.037151 0.449754 1.139802
  C 2.935790 -0.301358 -0.878445
  C 4.318859 -0.319079 -1.040416
  C 5.058948 -0.773978 -2.099887
  C 4.683626 -1.393667 -3.398649
  C 3.234683 -1.607651 -3.748783
  H 3.176618 -2.074093 -4.721151
  H 6.132798 -0.681192 -1.987734
  H 0.587244 0.175366 1.634619
  H 0.296581 -0.484818 -0.073488
  H 1.651516 1.035770 0.127659
  H 2.274454 -0.658958 -1.667269
  H 4.891937 0.065761 -0.211781
  H 5.207392 -2.354281 -3.448302
  H 5.153947 -0.792259 -4.179771
  H 2.694856 -0.650755 -3.804959
  H 2.749374 -2.277932 -3.027957
 19
 32.115826
  C 0.964299 -0.053237 0.658465
  C 2.347369 0.185503 0.332616
  H 3.032459 0.446992 1.140814
  C 2.940416 -0.292586 -0.876386
  C 4.318593 -0.310498 -1.042577
  C 5.059203 -0.771509 -2.101200
  C 4.693094 -1.392366 -3.390816
  C 3.235191 -1.609689 -3.758970
  H 3.186280 -2.088243 -4.743978
  H 6.130233 -0.684760 -1.985946
  H 0.584654 0.165734 1.647330
  H 0.298915 -0.486774 -0.063461
  H 1.692885 1.055574 0.129128
  H 2.281417 -0.649532 -1.656843
  H 4.897041 0.071368 -0.207122
  H 5.217494 -2.354390 -3.430067
  H 5.173803 -0.791562 -4.172693
  H 2.701492 -0.664061 -3.826916
  H 2.744749 -2.270784 -3.047198
 19
 32.830612
  C 0.962423 -0.070949 0.657535
  C 2.353302 0.195386 0.331977
  H 3.032016 0.436786 1.147440
  C 2.949795 -0.292293 -0.875955
  C 4.329267 -0.311688 -1.042535
  C 5.067979 -0.772862 -2.103763
  C 4.698256 -1.391035 -3.387753
  C 3.238213 -1.608851 -3.748766
  H 3.183515 -2.081494 -4.725037
  H 6.141592 -0.684635 -1.992614
  H 0.576139 0.152721 1.635494
  H 0.294262 -0.491844 -0.076947
  H 1.741332 1.080123 0.117109
  H 2.292522 -0.645807 -1.653746
  H 4.905190 0.073379 -0.216221
  H 5.225218 -2.354942 -3.429339
  H 5.176607 -0.787244 -4.171926
  H 2.702905 -0.663584 -3.810965
  H 2.752221 -2.269456 -3.036015
