 20
 0.000000
  C 0.980672 0.058016 0.173495
  C 2.483753 0.055401 0.189831
  C 3.238313 -0.015172 1.497632
  C 2.407156 -0.098338 2.768933
  H 3.072150 -0.145595 3.629580
  C 3.138285 0.119896 -0.979362
  H 2.558816 0.170584 -1.893229
  C 4.564652 0.129571 -1.165055
  C 5.133264 0.195940 -2.368728
  O 6.465120 0.208830 -2.614816
  H 0.555800 0.020548 1.169210
  H 0.603942 -0.799646 -0.385087
  H 0.611229 0.958297 -0.318593
  H 3.881593 0.867407 1.568549
  H 3.896701 -0.888682 1.464607
  H 1.787680 -0.988176 2.776218
  H 1.774727 0.774805 2.884117
  H 5.196379 0.080879 -0.287579
  H 4.564300 0.247057 -3.284404
  H 6.948488 0.162293 -1.779822
 20
 5.756817
  C 0.994713 0.112023 0.194545
  C 2.454229 0.073451 0.195119
  C 3.228008 0.006609 1.490857
  C 2.400712 -0.115783 2.764354
  H 3.068911 -0.159877 3.624413
  C 3.112825 0.134990 -0.970946
  H 2.532973 0.196471 -1.885453
  C 4.538135 0.117954 -1.155880
  C 5.110465 0.180628 -2.364668
  O 6.449464 0.178413 -2.610620
  H 0.530218 0.029521 1.155144
  H 0.888340 -0.794090 -0.389800
  H 0.592993 0.951453 -0.328072
  H 3.847506 0.905354 1.569497
  H 3.909837 -0.846952 1.442852
  H 1.802696 -1.021494 2.759561
  H 1.747949 0.741080 2.894430
  H 5.167056 0.058065 -0.281791
  H 4.540460 0.243769 -3.283456
  H 6.933065 0.122594 -1.771181
 20
 18.504768
  C 0.972984 0.138373 0.217444
  C 2.432400 0.083056 0.204715
  C 3.227764 0.020321 1.485653
  C 2.396676 -0.127941 2.763620
  H 3.059047 -0.169126 3.622787
  C 3.106387 0.142120 -0.978642
  H 2.530179 0.214126 -1.893035
  C 4.539523 0.108556 -1.163605
  C 5.112978 0.168061 -2.367238
  O 6.442047 0.153996 -2.606528
  H 0.480469 -0.007107 1.168533
  H 1.094905 -0.745293 -0.363989
  H 0.536881 0.969754 -0.336998
  H 3.829468 0.936996 1.565229
  H 3.928592 -0.822041 1.427018
  H 1.806967 -1.050108 2.747140
  H 1.723125 0.723624 2.898514
  H 5.171636 0.040905 -0.285065
  H 4.551423 0.239871 -3.282950
  H 6.912781 0.093061 -1.776264
 20
 32.273335
  C 0.956179 0.168365 0.225720
  C 2.420612 0.084217 0.200302
  C 3.218370 0.017658 1.487439
  C 2.397359 -0.142428 2.761281
  H 3.064042 -0.184197 3.615851
  C 3.103182 0.152671 -0.988684
  H 2.530102 0.245422 -1.899462
  C 4.528162 0.107613 -1.169290
  C 5.106434 0.172626 -2.370741
  O 6.444745 0.142222 -2.606334
  H 0.457704 0.062034 1.175858
  H 1.254672 -0.745144 -0.262641
  H 0.500165 0.915721 -0.416512
  H 3.805860 0.938195 1.566790
  H 3.926452 -0.813980 1.426944
  H 1.817117 -1.064151 2.743725
  H 1.723153 0.700720 2.904463
  H 5.155946 0.025350 -0.294346
  H 4.546376 0.258121 -3.292245
  H 6.914762 0.068607 -1.766641
 20
 43.592551
  C 0.945635 0.196989 0.239068
  C 2.415184 0.094794 0.191984
  C 3.206854 0.016082 1.479093
  C 2.390294 -0.158723 2.758146
  H 3.067997 -0.212352 3.614039
  C 3.101450 0.167402 -1.001044
  H 2.527327 0.271790 -1.912494
  C 4.525983 0.109218 -1.178963
  C 5.111208 0.174744 -2.379079
  O 6.444407 0.134092 -2.604356
  H 0.460664 0.159249 1.188780
  H 1.382127 -0.746912 -0.128833
  H 0.468505 0.828082 -0.489070
  H 3.788003 0.937206 1.561282
  H 3.918306 -0.811991 1.410515
  H 1.807601 -1.080327 2.733834
  H 1.717676 0.685383 2.918143
  H 5.150553 0.017441 -0.303066
  H 4.558315 0.270122 -3.303897
  H 6.908453 0.053698 -1.755241
 20
 51.288964
  C 0.940329 0.223862 0.246816
  C 2.412126 0.103123 0.187696
  C 3.199967 0.012105 1.478674
  C 2.383943 -0.173600 2.755792
  H 3.061565 -0.246203 3.607672
  C 3.099365 0.180113 -1.011531
  H 2.523117 0.293779 -1.919534
  C 4.521367 0.112030 -1.188317
  C 5.112323 0.177280 -2.385694
  O 6.455313 0.129477 -2.605273
  H 0.459827 0.266254 1.197227
  H 1.487086 -0.747456 -0.000557
  H 0.442295 0.725346 -0.562103
  H 3.783809 0.933629 1.568604
  H 3.911023 -0.817719 1.403075
  H 1.793608 -1.085387 2.719748
  H 1.722836 0.670565 2.930385
  H 5.145045 0.014189 -0.309562
  H 4.563293 0.279008 -3.314650
  H 6.911418 0.046546 -1.756374
 20
 57.677943
  C 0.933545 0.248884 0.233702
  C 2.408294 0.105394 0.174266
  C 3.200988 0.010556 1.478171
  C 2.392117 -0.183553 2.764777
  H 3.078625 -0.266057 3.614540
  C 3.097882 0.183816 -1.020278
  H 2.528154 0.298646 -1.935846
  C 4.503022 0.112352 -1.188023
  C 5.106174 0.175685 -2.384975
  O 6.459308 0.126907 -2.596553
  H 0.443937 0.323067 1.191108
  H 1.569709 -0.736189 0.044940
  H 0.437233 0.675293 -0.605449
  H 3.775890 0.919489 1.570001
  H 3.914967 -0.820733 1.395904
  H 1.794826 -1.099417 2.725626
  H 1.729448 0.669943 2.954913
  H 5.115243 0.015248 -0.312218
  H 4.574680 0.275986 -3.301564
  H 6.903859 0.046319 -1.752127
 20
 61.975841
  C 0.932934 0.275514 0.249692
  C 2.407363 0.096664 0.186066
  C 3.203494 0.007616 1.482424
  C 2.385751 -0.188365 2.758239
  H 3.059560 -0.284682 3.605331
  C 3.102334 0.190592 -1.026912
  H 2.519117 0.315119 -1.934875
  C 4.510631 0.110461 -1.197157
  C 5.114099 0.178294 -2.393321
  O 6.463937 0.124951 -2.600448
  H 0.432837 0.369994 1.195728
  H 1.629400 -0.741317 0.111517
  H 0.422004 0.604678 -0.623704
  H 3.782953 0.923486 1.577159
  H 3.915602 -0.822583 1.400150
  H 1.779771 -1.093830 2.707220
  H 1.735068 0.665452 2.949052
  H 5.132123 0.002843 -0.312595
  H 4.577203 0.289032 -3.320550
  H 6.908244 0.037807 -1.749444
 20
 65.950947
  C 0.931977 0.306062 0.256883
  C 2.400116 0.082473 0.194309
  C 3.202955 0.004735 1.482835
  C 2.389064 -0.193247 2.758800
  H 3.064064 -0.292942 3.604909
  C 3.101345 0.192887 -1.029420
  H 2.514984 0.318648 -1.928339
  C 4.511479 0.109145 -1.199543
  C 5.118715 0.179545 -2.393573
  O 6.470550 0.121271 -2.595743
  H 0.423401 0.388839 1.190243
  H 1.674545 -0.755618 0.134125
  H 0.412490 0.581392 -0.642492
  H 3.778969 0.926415 1.573573
  H 3.915284 -0.817386 1.399311
  H 1.782521 -1.094403 2.706404
  H 1.742483 0.657477 2.950758
  H 5.130448 -0.003546 -0.318721
  H 4.583306 0.295086 -3.324133
  H 6.911892 0.029275 -1.741695
 20
 68.623927
  C 0.937263 0.344562 0.257501
  C 2.397574 0.070256 0.197930
  C 3.205182 0.004603 1.487695
  C 2.390746 -0.197399 2.758881
  H 3.064339 -0.300500 3.607431
  C 3.103098 0.190203 -1.030425
  H 2.515397 0.314437 -1.926354
  C 4.508233 0.104234 -1.200038
  C 5.117688 0.174913 -2.395094
  O 6.470477 0.121019 -2.593991
  H 0.412773 0.392392 1.186929
  H 1.719937 -0.774494 0.135789
  H 0.418662 0.578175 -0.650361
  H 3.774180 0.930406 1.577793
  H 3.924302 -0.815783 1.405351
  H 1.783777 -1.098826 2.700874
  H 1.742672 0.653986 2.951514
  H 5.129089 -0.007621 -0.317645
  H 4.584713 0.291265 -3.324459
  H 6.909803 0.030021 -1.739120
 20
 69.989179
  C 0.944679 0.391052 0.262592
  C 2.391879 0.055103 0.203826
  C 3.204891 0.004955 1.490647
  C 2.392988 -0.202516 2.761792
  H 3.065260 -0.303156 3.606946
  C 3.106331 0.185172 -1.034406
  H 2.513389 0.307042 -1.931564
  C 4.505656 0.100727 -1.200655
  C 5.120176 0.169721 -2.396554
  O 6.473875 0.119484 -2.589539
  H 0.404406 0.389709 1.186539
  H 1.761510 -0.811921 0.130771
  H 0.422544 0.595706 -0.651796
  H 3.764530 0.937857 1.576137
  H 3.936126 -0.813907 1.407793
  H 1.790206 -1.106696 2.702346
  H 1.741399 0.644477 2.955105
  H 5.123414 -0.008024 -0.321194
  H 4.590892 0.282432 -3.325639
  H 6.910497 0.031163 -1.732425
 20
 71.320012
  C 0.958519 0.423221 0.263137
  C 2.390139 0.037819 0.206815
  C 3.205910 -0.001761 1.494582
  C 2.391119 -0.207451 2.763440
  H 3.066658 -0.307536 3.618254
  C 3.104901 0.173496 -1.034191
  H 2.505890 0.296236 -1.929344
  C 4.505580 0.088528 -1.202390
  C 5.120452 0.161943 -2.399746
  O 6.473060 0.129515 -2.590163
  H 0.412706 0.395865 1.177083
  H 1.799067 -0.834205 0.129895
  H 0.441440 0.611066 -0.655816
  H 3.760425 0.933939 1.576979
  H 3.934089 -0.811183 1.415536
  H 1.789439 -1.111034 2.702750
  H 1.737364 0.639665 2.952516
  H 5.126901 -0.018230 -0.321172
  H 4.587758 0.275776 -3.332584
  H 6.912462 0.044874 -1.729229
 20
 70.373912
  C 0.970201 0.472105 0.260716
  C 2.379527 0.023596 0.206231
  C 3.205208 0.001129 1.492547
  C 2.402473 -0.219243 2.766775
  H 3.080884 -0.312943 3.610926
  C 3.105393 0.168511 -1.039598
  H 2.507831 0.286312 -1.932554
  C 4.494558 0.089163 -1.197902
  C 5.118371 0.156416 -2.395214
  O 6.472870 0.119581 -2.576548
  H 0.407524 0.397705 1.172307
  H 1.846277 -0.886299 0.112018
  H 0.450653 0.643284 -0.662018
  H 3.745109 0.947685 1.570947
  H 3.943095 -0.793285 1.410356
  H 1.813091 -1.129871 2.705885
  H 1.735939 0.621625 2.963458
  H 5.113773 -0.015214 -0.312783
  H 4.592705 0.262497 -3.327806
  H 6.905406 0.037375 -1.716349
 20
 68.992527
  C 0.982986 0.518500 0.268135
  C 2.369326 0.013272 0.206221
  C 3.200787 0.008468 1.490895
  C 2.405341 -0.227866 2.766552
  H 3.089568 -0.313796 3.611478
  C 3.103834 0.164118 -1.041083
  H 2.507288 0.278407 -1.931323
  C 4.493616 0.085502 -1.196496
  C 5.122129 0.143810 -2.395269
  O 6.474251 0.111830 -2.570953
  H 0.416679 0.397774 1.167374
  H 1.899931 -0.932118 0.094930
  H 0.461796 0.687175 -0.653974
  H 3.720047 0.962507 1.566837
  H 3.956635 -0.777543 1.406886
  H 1.820675 -1.158145 2.702235
  H 1.738503 0.588180 2.964489
  H 5.110796 -0.020954 -0.312330
  H 4.596421 0.233181 -3.332383
  H 6.906363 0.042096 -1.707786
