18

H -2.473261129581604 0.7030054364812768 -0.05830004446493241
C -2.060618 0.588574 -0.029138
C -1.647656 -0.473296 0.64205
C -0.239072 -0.946687 0.801797
C 0.811176 -0.089081 0.106157
C 2.226107 -0.625095 0.341944
C 3.276398 0.221801 -0.391781
H -1.355331 1.223778 -0.539549
H -2.382755 -1.095708 1.145152
H -0.012966 -0.996819 1.875022
H -0.179166 -1.972457 0.412158
H 0.607436 -0.070844 -0.967388
H 0.761947 0.934806 0.483224
H 2.425719 -0.603833 1.414009
H 2.280434 -1.667543 0.02263
H 3.972023 0.68338 0.305339
H 3.852128 -0.378215 -1.09234
H 2.790815 1.016061 -0.957596
