 20
 0.000000
  C 0.965413 0.190335 0.524656
  C 2.410667 0.106456 0.318559
  H 3.061673 0.429079 1.121735
  C 2.971875 -0.363062 -0.849416
  C 4.358517 -0.427150 -1.009947
  C 5.108331 -0.864455 -2.102905
  C 4.667540 -1.391458 -3.418434
  C 3.191819 -1.525689 -3.751502
  H 3.105241 -1.928884 -4.758730
  O 6.415931 -0.832679 -2.026271
  H 0.709521 0.583665 1.502502
  H 0.507318 -0.793249 0.396534
  H 0.508643 0.812263 -0.248871
  H 2.310949 -0.679873 -1.638412
  H 4.938541 -0.085324 -0.158285
  H 5.153869 -2.367646 -3.528025
  H 5.152888 -0.760262 -4.171709
  H 2.690566 -0.562246 -3.740215
  H 2.691531 -2.215835 -3.078325
  H 6.778379 -0.496188 -1.184338
 20
 12.294802
  C 0.921305 0.203037 0.555902
  C 2.361878 0.108712 0.324581
  H 3.029589 0.425972 1.115376
  C 2.889623 -0.360468 -0.842974
  C 4.399828 -0.437016 -1.033995
  C 5.114135 -0.872374 -2.122549
  C 4.679918 -1.395361 -3.428135
  C 3.204680 -1.527232 -3.754843
  H 3.113542 -1.929810 -4.760540
  O 6.555506 -0.840024 -2.045578
  H 0.685774 0.597880 1.538045
  H 0.453533 -0.777065 0.435067
  H 0.455286 0.828075 -0.209758
  H 2.223848 -0.674096 -1.624901
  H 4.982160 -0.097758 -0.187822
  H 5.167198 -2.372256 -3.539502
  H 5.166064 -0.764707 -4.183208
  H 2.705410 -0.562735 -3.740983
  H 2.706615 -2.216459 -3.079086
  H 6.904696 -0.504239 -1.206041
 20
 37.104113
  C 0.896779 0.225582 0.610319
  C 2.339250 0.113308 0.337775
  H 3.033297 0.422845 1.115145
  C 2.815677 -0.358840 -0.840413
  C 4.425280 -0.439621 -1.038634
  C 5.049626 -0.884671 -2.153799
  C 4.693979 -1.402422 -3.446583
  C 3.230629 -1.543218 -3.791776
  H 3.146641 -1.947341 -4.800775
  O 6.651277 -0.846426 -2.065620
  H 0.691920 0.621420 1.598906
  H 0.411274 -0.748660 0.496432
  H 0.415189 0.854779 -0.144662
  H 2.191473 -0.681532 -1.649849
  H 4.968573 -0.094124 -0.172903
  H 5.205482 -2.371227 -3.553621
  H 5.203104 -0.773909 -4.193177
  H 2.728800 -0.578079 -3.774413
  H 2.731627 -2.231210 -3.112276
  H 6.899565 -0.498156 -1.195187
 20
 67.134920
  C 0.877930 0.230910 0.622729
  C 2.309536 0.112397 0.336633
  H 3.008141 0.417917 1.103828
  C 2.762335 -0.358420 -0.837573
  C 4.448854 -0.442164 -1.043483
  C 5.014091 -0.885757 -2.155732
  C 4.685641 -1.401213 -3.444002
  C 3.221858 -1.544762 -3.795029
  H 3.143056 -1.946386 -4.798517
  O 6.799274 -0.848025 -2.071857
  H 0.689348 0.628782 1.615533
  H 0.385886 -0.740988 0.515693
  H 0.390653 0.863247 -0.126205
  H 2.164639 -0.686035 -1.659763
  H 4.973207 -0.095432 -0.175562
  H 5.204090 -2.359126 -3.554562
  H 5.201345 -0.782319 -4.185465
  H 2.719375 -0.581649 -3.778254
  H 2.723006 -2.232247 -3.117772
  H 7.015033 -0.500706 -1.201613
 20
 95.415931
  C 0.856568 0.249575 0.665931
  C 2.284950 0.121546 0.358900
  H 2.994344 0.418253 1.116382
  C 2.712256 -0.350251 -0.824233
  C 4.426865 -0.445821 -1.046628
  C 4.950527 -0.885934 -2.155549
  C 4.679117 -1.406425 -3.457146
  C 3.217382 -1.568572 -3.848375
  H 3.171246 -1.972004 -4.856241
  O 6.964515 -0.836097 -2.049448
  H 0.688807 0.644172 1.659893
  H 0.357031 -0.715003 0.564052
  H 0.364340 0.886545 -0.070427
  H 2.118284 -0.676701 -1.652080
  H 4.947464 -0.103940 -0.176689
  H 5.217249 -2.366425 -3.554619
  H 5.211564 -0.774668 -4.190546
  H 2.702907 -0.611109 -3.841706
  H 2.709217 -2.260502 -3.181505
  H 7.159498 -0.488222 -1.184851
 20
 106.330352
  C 0.892292 0.293363 0.684000
  C 2.329414 0.111050 0.405507
  H 3.031128 0.373927 1.180759
  C 2.770766 -0.356409 -0.785331
  C 4.223967 -0.507836 -1.027145
  C 4.700249 -0.912287 -2.160399
  C 4.620111 -1.404108 -3.473828
  C 3.178818 -1.639052 -3.953073
  H 3.229808 -2.020466 -4.963109
  O 7.214704 -0.731491 -1.965580
  H 0.716242 0.684962 1.691532
  H 0.354232 -0.654437 0.559740
  H 0.440511 0.964479 -0.056985
  H 2.120181 -0.616987 -1.603797
  H 4.824189 -0.230630 -0.171688
  H 5.212626 -2.336407 -3.528521
  H 5.156509 -0.717294 -4.140818
  H 2.620721 -0.710155 -3.961009
  H 2.678109 -2.368942 -3.330992
  H 7.410343 -0.355153 -1.103230
 20
 110.550057
  C 0.876505 0.323880 0.723618
  C 2.300656 0.110843 0.426729
  H 3.020569 0.349089 1.200280
  C 2.712597 -0.353750 -0.775354
  C 4.136102 -0.540564 -1.052789
  C 4.608380 -0.934289 -2.181443
  C 4.631474 -1.412455 -3.490098
  C 3.191889 -1.669427 -3.997130
  H 3.276611 -2.043535 -5.017217
  O 7.393354 -0.681687 -1.932041
  H 0.728077 0.705131 1.729611
  H 0.317217 -0.606888 0.603532
  H 0.433761 1.014074 0.002133
  H 2.029037 -0.582759 -1.570683
  H 4.772706 -0.298517 -0.212462
  H 5.208972 -2.340862 -3.534107
  H 5.142126 -0.704228 -4.146859
  H 2.617941 -0.746245 -4.006258
  H 2.690622 -2.416196 -3.385668
  H 7.640316 -0.299723 -1.086923
 20
 110.822831
  C 0.855883 0.343550 0.766193
  C 2.273521 0.117836 0.438249
  H 3.005494 0.326112 1.202920
  C 2.657988 -0.335199 -0.774794
  C 4.054290 -0.554680 -1.087779
  C 4.526313 -0.949754 -2.213556
  C 4.638696 -1.422921 -3.508668
  C 3.200936 -1.693194 -4.031641
  H 3.306901 -2.066945 -5.037025
  O 7.577819 -0.649793 -1.897531
  H 0.731235 0.710025 1.788618
  H 0.281311 -0.579856 0.641433
  H 0.408062 1.057080 0.066891
  H 1.948367 -0.545932 -1.555267
  H 4.718926 -0.346909 -0.260126
  H 5.211178 -2.360179 -3.527067
  H 5.142271 -0.697982 -4.162350
  H 2.623648 -0.781284 -4.050995
  H 2.699965 -2.433312 -3.427433
  H 7.873642 -0.260086 -1.074357
 20
 110.300657
  C 0.842859 0.367573 0.807562
  C 2.243972 0.114876 0.457058
  H 2.996481 0.312314 1.213686
  C 2.602051 -0.338696 -0.766086
  C 3.973786 -0.579991 -1.115023
  C 4.444617 -0.968506 -2.240300
  C 4.640716 -1.430565 -3.530628
  C 3.205389 -1.716788 -4.071687
  H 3.335814 -2.093846 -5.094362
  O 7.757755 -0.611366 -1.853818
  H 0.741556 0.733562 1.827307
  H 0.249643 -0.542541 0.689316
  H 0.398830 1.090219 0.116572
  H 1.874692 -0.525130 -1.526305
  H 4.670564 -0.389835 -0.308146
  H 5.216201 -2.360246 -3.533887
  H 5.144496 -0.694408 -4.163124
  H 2.611873 -0.800760 -4.098458
  H 2.698922 -2.473822 -3.468107
  H 8.094200 -0.216402 -1.042592
 20
 109.248836
  C 0.808420 0.391684 0.879162
  C 2.204972 0.149116 0.464688
  H 2.987957 0.384773 1.175558
  C 2.520418 -0.349003 -0.754522
  C 3.873994 -0.580277 -1.178326
  C 4.340662 -1.014547 -2.291058
  C 4.677342 -1.421042 -3.568483
  C 3.236841 -1.736617 -4.102000
  H 3.373928 -2.088359 -5.121620
  O 7.903090 -0.649425 -1.799189
  H 0.748377 0.786586 1.888602
  H 0.225222 -0.530399 0.817272
  H 0.321753 1.087745 0.191228
  H 1.743946 -0.577454 -1.473409
  H 4.638233 -0.359743 -0.424780
  H 5.293605 -2.327759 -3.589211
  H 5.167241 -0.649808 -4.170043
  H 2.618702 -0.843384 -4.114924
  H 2.757861 -2.515838 -3.516335
  H 8.313301 -0.280137 -1.013478
 20
 107.399788
  C 0.792325 0.338332 0.869150
  C 2.178537 0.149443 0.418761
  H 2.970844 0.430578 1.098625
  C 2.484789 -0.353816 -0.795365
  C 3.834799 -0.537578 -1.239164
  C 4.329183 -0.981341 -2.340342
  C 4.778591 -1.464292 -3.546655
  C 3.267783 -1.635637 -3.974883
  H 3.331641 -2.047520 -4.981627
  O 7.756545 -0.693806 -1.827342
  H 0.743393 0.744254 1.873209
  H 0.248238 -0.607014 0.835169
  H 0.258213 1.002202 0.187075
  H 1.700291 -0.637302 -1.482020
  H 4.631449 -0.260542 -0.541716
  H 5.307326 -2.415729 -3.515106
  H 5.307194 -0.753165 -4.179804
  H 2.735357 -0.689961 -4.034238
  H 2.730581 -2.350463 -3.356807
  H 8.368786 -0.360532 -1.167785
