 26
 0.000000
  C 0.976623 0.152989 0.433987
  C 2.450565 0.136609 0.391920
  C 3.233336 0.603360 1.551300
  H 2.632357 0.939194 2.386834
  C 3.051543 -0.330952 -0.771101
  C 4.427849 -0.414774 -0.980763
  C 5.113660 -0.865140 -2.103989
  C 4.621448 -1.387661 -3.407636
  C 3.132408 -1.507344 -3.707568
  C 2.925565 -2.070045 -5.111540
  O 6.433950 -0.857879 -2.085976
  H 0.584804 0.530801 1.373295
  H 0.586377 -0.853216 0.275081
  H 0.585677 0.768478 -0.377406
  H 3.886135 1.422676 1.243266
  H 3.886867 -0.200474 1.896289
  H 2.387424 -0.647050 -1.556797
  H 5.050285 -0.084038 -0.157579
  H 5.082780 -2.374198 -3.532016
  H 5.083470 -0.760657 -4.178988
  H 2.655215 -0.528085 -3.657960
  H 2.654623 -2.180931 -2.995451
  H 3.370578 -1.420964 -5.862039
  H 1.863867 -2.156527 -5.328252
  H 3.370056 -3.058052 -5.205826
  H 6.817685 -0.524817 -1.252973
 26
 12.709623
  C 0.944506 0.188402 0.521793
  C 2.406268 0.166360 0.466073
  C 3.212494 0.621836 1.597761
  H 2.619655 0.960295 2.439971
  C 3.040678 -0.346682 -0.810110
  C 4.408481 -0.429156 -1.016498
  C 5.084785 -0.877278 -2.134342
  C 4.621620 -1.398402 -3.434427
  C 3.137514 -1.525328 -3.752223
  C 2.953676 -2.089085 -5.158839
  O 6.540547 -0.863966 -2.101861
  H 0.568454 0.568418 1.466528
  H 0.547180 -0.815910 0.364222
  H 0.546678 0.803591 -0.287324
  H 3.866697 1.436851 1.280811
  H 3.867340 -0.185192 1.933214
  H 2.363830 -0.657511 -1.582794
  H 5.034140 -0.098772 -0.194061
  H 5.092500 -2.381997 -3.552869
  H 5.093129 -0.769398 -4.199471
  H 2.654967 -0.548221 -3.709108
  H 2.654458 -2.201913 -3.046287
  H 3.405855 -1.437536 -5.902812
  H 1.895829 -2.181800 -5.390968
  H 3.405423 -3.074324 -5.246744
  H 6.900385 -0.529796 -1.266310
 26
 39.257241
  C 0.909972 0.213600 0.584468
  C 2.369938 0.191104 0.527416
  C 3.243359 0.628067 1.613833
  H 2.679492 0.974235 2.475560
  C 3.012532 -0.363015 -0.851724
  C 4.370168 -0.435882 -1.034064
  C 5.014741 -0.880896 -2.143904
  C 4.623031 -1.406055 -3.453407
  C 3.142032 -1.540712 -3.790503
  C 2.975847 -2.105343 -5.198996
  O 6.624877 -0.851946 -2.072422
  H 0.541576 0.594717 1.532800
  H 0.508165 -0.787206 0.417954
  H 0.507468 0.820230 -0.228426
  H 3.901182 1.428957 1.274332
  H 3.901780 -0.184602 1.922841
  H 2.302560 -0.662987 -1.597875
  H 4.993325 -0.108133 -0.217866
  H 5.111281 -2.382215 -3.560877
  H 5.111915 -0.775116 -4.205537
  H 2.663448 -0.562678 -3.741917
  H 2.662721 -2.213953 -3.079764
  H 3.434374 -1.452161 -5.937571
  H 1.921272 -2.202990 -5.443767
  H 3.433672 -3.088198 -5.281680
  H 6.905032 -0.509045 -1.215037
 26
 69.863861
  C 0.892081 0.243019 0.664243
  C 2.333336 0.217072 0.592408
  C 3.251719 0.637639 1.626674
  H 2.724960 0.993247 2.508805
  C 2.963464 -0.372072 -0.866561
  C 4.322711 -0.444444 -1.051543
  C 4.934929 -0.894328 -2.168784
  C 4.617415 -1.416175 -3.461248
  C 3.140756 -1.559478 -3.835687
  C 3.016448 -2.121366 -5.249173
  O 6.728110 -0.850315 -2.065801
  H 0.538986 0.629155 1.619920
  H 0.481909 -0.761363 0.501582
  H 0.478181 0.849655 -0.150740
  H 3.913525 1.430756 1.255880
  H 3.917264 -0.187528 1.910376
  H 2.217278 -0.660783 -1.577077
  H 4.958483 -0.115856 -0.240392
  H 5.127230 -2.385615 -3.559878
  H 5.124333 -0.776535 -4.198396
  H 2.653665 -0.584161 -3.802847
  H 2.647335 -2.242384 -3.143230
  H 3.489805 -1.462409 -5.973720
  H 1.969067 -2.225993 -5.522179
  H 3.483584 -3.101003 -5.321814
  H 6.943035 -0.497427 -1.187952
 26
 99.823578
  C 0.879391 0.266488 0.701822
  C 2.306431 0.231130 0.629464
  C 3.240378 0.632340 1.632202
  H 2.738396 0.995824 2.524972
  C 2.925640 -0.370912 -0.857373
  C 4.287669 -0.447685 -1.044212
  C 4.881981 -0.898036 -2.173746
  C 4.603719 -1.421221 -3.475118
  C 3.130780 -1.575568 -3.863791
  C 3.026683 -2.135130 -5.277555
  O 6.909670 -0.830796 -2.051558
  H 0.531744 0.652227 1.654627
  H 0.464733 -0.727159 0.538060
  H 0.471453 0.871442 -0.106601
  H 3.903191 1.406421 1.249407
  H 3.895729 -0.195595 1.897303
  H 2.164826 -0.647942 -1.555178
  H 4.929457 -0.125232 -0.235170
  H 5.120397 -2.382238 -3.572621
  H 5.112619 -0.780561 -4.206330
  H 2.637936 -0.604926 -3.833349
  H 2.637441 -2.263251 -3.177871
  H 3.501865 -1.472080 -5.995763
  H 1.983590 -2.246416 -5.559806
  H 3.501138 -3.110424 -5.347212
  H 7.095034 -0.474135 -1.183187
 26
 108.033061
  C 0.912329 0.340383 0.664680
  C 2.360666 0.182562 0.509586
  C 3.241170 0.544337 1.618025
  H 2.686409 0.907710 2.473433
  C 2.839594 -0.315546 -0.724016
  C 4.215747 -0.489738 -1.004669
  C 4.685920 -0.913721 -2.153224
  C 4.534746 -1.418255 -3.462602
  C 3.062940 -1.631759 -3.890232
  C 3.029486 -2.178863 -5.304745
  O 7.269649 -0.666555 -2.031535
  H 0.636468 0.712016 1.639906
  H 0.409965 -0.606855 0.483576
  H 0.513000 0.986865 -0.112669
  H 3.967555 1.289070 1.308725
  H 3.840622 -0.308694 1.917634
  H 2.097261 -0.540441 -1.471034
  H 4.917666 -0.245357 -0.216670
  H 5.081438 -2.366328 -3.523317
  H 5.036524 -0.734982 -4.157721
  H 2.531152 -0.684144 -3.866472
  H 2.580082 -2.342334 -3.223827
  H 3.492869 -1.491723 -6.005446
  H 1.998102 -2.323417 -5.610115
  H 3.535896 -3.136519 -5.371410
  H 7.407219 -0.218865 -1.172826
 26
 110.356103
  C 0.885309 0.381987 0.751446
  C 2.337105 0.184612 0.529280
  C 3.274541 0.531002 1.620114
  H 2.749748 0.917474 2.488448
  C 2.735047 -0.300691 -0.679618
  C 4.112438 -0.495713 -1.035995
  C 4.524590 -0.921544 -2.189395
  C 4.508376 -1.415527 -3.473707
  C 3.044952 -1.665229 -3.965056
  C 3.095344 -2.215126 -5.366960
  O 7.414362 -0.643697 -1.980577
  H 0.674238 0.765206 1.743800
  H 0.346649 -0.553844 0.607060
  H 0.473620 1.055759 0.004897
  H 4.003371 1.268171 1.290943
  H 3.854380 -0.339197 1.921187
  H 1.977032 -0.517950 -1.423048
  H 4.854417 -0.261067 -0.275484
  H 5.070389 -2.352722 -3.527713
  H 5.018466 -0.729890 -4.156681
  H 2.502376 -0.724079 -3.949142
  H 2.565218 -2.377619 -3.299140
  H 3.580031 -1.523390 -6.050327
  H 2.079382 -2.381245 -5.715913
  H 3.627157 -3.161810 -5.406728
  H 7.560283 -0.185159 -1.148616
 26
 109.152897
  C 0.861303 0.428193 0.909090
  C 2.293601 0.225496 0.581101
  C 3.333101 0.525375 1.587749
  H 2.902881 0.902899 2.504753
  C 2.597692 -0.245460 -0.653086
  C 3.946289 -0.494688 -1.090087
  C 4.348330 -0.934522 -2.232190
  C 4.506457 -1.430655 -3.498387
  C 3.057767 -1.699030 -4.064718
  C 3.190734 -2.266502 -5.462559
  O 7.488110 -0.616476 -1.861613
  H 0.723699 0.792691 1.915788
  H 0.309088 -0.501205 0.791875
  H 0.409706 1.132190 0.213360
  H 4.035220 1.267414 1.211204
  H 3.907123 -0.368185 1.824863
  H 1.811869 -0.461368 -1.356031
  H 4.721142 -0.278346 -0.352408
  H 5.058684 -2.374775 -3.500130
  H 5.027096 -0.734712 -4.161185
  H 2.509064 -0.757652 -4.086590
  H 2.547494 -2.406527 -3.411788
  H 3.703080 -1.578120 -6.126953
  H 2.194450 -2.441764 -5.858109
  H 3.727024 -3.210269 -5.462027
  H 7.678767 -0.145321 -1.050334
 26
 106.781104
  C 0.864763 0.543287 0.986832
  C 2.270957 0.266554 0.618890
  C 3.344437 0.508705 1.607074
  H 2.949903 0.901916 2.538485
  C 2.528275 -0.208904 -0.635385
  C 3.844303 -0.519363 -1.112775
  C 4.258449 -0.960195 -2.243574
  C 4.532738 -1.470785 -3.494103
  C 3.101344 -1.713632 -4.120947
  C 3.289751 -2.300846 -5.508707
  O 7.244427 -0.703009 -1.866371
  H 0.772961 0.900431 2.006916
  H 0.256633 -0.353604 0.867569
  H 0.437292 1.285378 0.311890
  H 4.074631 1.219607 1.219112
  H 3.877605 -0.416687 1.828543
  H 1.716095 -0.371631 -1.326530
  H 4.658289 -0.343503 -0.403392
  H 5.058946 -2.428629 -3.448369
  H 5.097522 -0.779871 -4.125023
  H 2.572000 -0.764934 -4.183377
  H 2.542479 -2.404050 -3.492390
  H 3.848240 -1.628216 -6.153266
  H 2.308045 -2.460047 -5.949378
  H 3.805654 -3.255933 -5.471380
  H 7.634029 -0.213360 -1.138756
