 17
 0.000000
  C 1.008541 -0.069751 0.051130
  C 2.504449 -0.082969 0.025182
  C 3.217153 -0.596065 -0.982118
  C 4.654507 -0.608232 -1.005999
  C 5.377261 -1.123265 -2.017096
  C 6.815495 -1.132671 -2.035561
  C 7.532884 -1.642097 -3.035653
  H 8.605760 -1.654336 -3.059672
  H 0.648072 0.396394 0.966245
  H 0.612085 -1.083669 0.011596
  H 0.612084 0.494414 -0.792264
  H 3.008016 0.351428 0.877978
  H 2.704265 -1.028794 -1.831626
  H 5.159008 -0.173488 -0.152530
  H 4.874648 -1.558327 -2.871195
  H 7.320115 -0.697829 -1.181894
  H 7.037026 -2.077930 -3.891251
 17
 1.130366
  C 1.021910 -0.122791 0.062391
  C 2.515210 -0.058842 0.038263
  C 3.262039 -0.487493 -0.983160
  C 4.697544 -0.459287 -1.007428
  C 5.419248 -0.836148 -2.074195
  C 6.850701 -0.991248 -2.078970
  C 7.473026 -1.761319 -2.965733
  H 8.530814 -1.959466 -2.942900
  H 0.628965 0.254730 0.999885
  H 0.680882 -1.148594 -0.067959
  H 0.599883 0.467119 -0.750108
  H 2.998834 0.356049 0.912692
  H 2.782034 -0.904141 -1.859436
  H 5.197358 -0.142943 -0.102966
  H 4.906143 -1.150751 -2.974111
  H 7.403051 -0.503854 -1.285903
  H 6.913418 -2.260507 -3.743621
 17
 3.168530
  C 1.032301 -0.174561 0.054746
  C 2.525820 -0.117266 0.043054
  C 3.274667 -0.445390 -1.012582
  C 4.711994 -0.422176 -1.029044
  C 5.431298 -0.713864 -2.122865
  C 6.864940 -0.917662 -2.123078
  C 7.416164 -1.869161 -2.868033
  H 8.459366 -2.130757 -2.843755
  H 0.638649 0.051394 1.041694
  H 0.684808 -1.163956 -0.241299
  H 0.615796 0.542594 -0.652915
  H 3.008042 0.218481 0.951509
  H 2.796068 -0.781351 -1.924313
  H 5.210923 -0.201488 -0.093837
  H 4.916471 -0.945199 -3.046368
  H 7.459504 -0.314985 -1.449079
  H 6.795475 -2.475860 -3.508758
 17
 5.101493
  C 1.033890 -0.181455 0.045911
  C 2.524465 -0.229530 0.036212
  C 3.254852 -0.458663 -1.056588
  C 4.692049 -0.501158 -1.074286
  C 5.406788 -0.686515 -2.188260
  C 6.857395 -0.873183 -2.201728
  C 7.400848 -1.962602 -2.722672
  H 8.456250 -2.174355 -2.711619
  H 0.648669 -0.175426 1.062842
  H 0.615862 -1.038612 -0.483504
  H 0.680878 0.717042 -0.456917
  H 3.023760 -0.057650 0.983753
  H 2.761751 -0.632932 -2.007051
  H 5.193823 -0.400805 -0.124071
  H 4.899282 -0.798766 -3.135864
  H 7.468173 -0.105630 -1.737491
  H 6.772886 -2.726875 -3.153255
 17
 7.110353
  C 1.042523 -0.176517 0.013386
  C 2.529674 -0.317640 0.005976
  C 3.260235 -0.441544 -1.101363
  C 4.696884 -0.571862 -1.109724
  C 5.435734 -0.559402 -2.219503
  C 6.884073 -0.822623 -2.229336
  C 7.342763 -2.016967 -2.560860
  H 8.380161 -2.305680 -2.554668
  H 0.641731 -0.300411 1.019014
  H 0.579436 -0.916763 -0.644841
  H 0.752950 0.812787 -0.349622
  H 3.023033 -0.307983 0.968646
  H 2.773022 -0.452046 -2.071982
  H 5.177836 -0.699075 -0.147270
  H 4.961778 -0.425871 -3.186106
  H 7.549268 -0.015101 -1.939098
  H 6.649631 -2.796901 -2.833042
 17
 7.315414
  C 1.055200 -0.194580 -0.019392
  C 2.538293 -0.392393 -0.038201
  C 3.269311 -0.437776 -1.150748
  C 4.699109 -0.631491 -1.171466
  C 5.463453 -0.453308 -2.249782
  C 6.898650 -0.779525 -2.278208
  C 7.281451 -2.040225 -2.371029
  H 8.296327 -2.399283 -2.386244
  H 0.645333 -0.397732 0.967789
  H 0.568658 -0.848984 -0.743852
  H 0.804907 0.835013 -0.286980
  H 3.027392 -0.493861 0.922398
  H 2.789287 -0.334973 -2.116378
  H 5.157555 -0.943087 -0.242243
  H 5.025681 -0.112193 -3.180889
  H 7.608813 0.036362 -2.220936
  H 6.528751 -2.811821 -2.441287
 17
 6.753638
  C 1.071114 -0.257441 -0.060110
  C 2.555435 -0.426921 -0.076906
  C 3.297697 -0.373095 -1.180649
  C 4.724405 -0.594711 -1.206898
  C 5.519467 -0.322786 -2.244109
  C 6.914261 -0.767054 -2.298988
  C 7.173122 -2.059903 -2.205294
  H 8.133687 -2.541162 -2.274176
  H 0.658791 -0.517206 0.910980
  H 0.604127 -0.883773 -0.818684
  H 0.802049 0.776299 -0.278535
  H 3.036877 -0.589468 0.877747
  H 2.821150 -0.203040 -2.140003
  H 5.158107 -1.030591 -0.315483
  H 5.125626 0.168080 -3.125342
  H 7.693127 -0.026266 -2.429377
  H 6.342703 -2.746890 -2.129244
 17
 9.161569
  C 1.095403 -0.358019 -0.140588
  C 2.586637 -0.448099 -0.142761
  C 3.339735 -0.298479 -1.231677
  C 4.758206 -0.510253 -1.254736
  C 5.599082 -0.185508 -2.253367
  C 6.909351 -0.808195 -2.306352
  C 6.993419 -2.101223 -2.007038
  H 7.904047 -2.673352 -1.945803
  H 0.684319 -0.694910 0.807145
  H 0.673107 -0.962899 -0.941846
  H 0.773523 0.671393 -0.304392
  H 3.064509 -0.633285 0.809960
  H 2.858185 -0.108234 -2.183619
  H 5.175947 -0.964469 -0.364138
  H 5.294529 0.480254 -3.049782
  H 7.775737 -0.224069 -2.586305
  H 6.086028 -2.681702 -1.956016
 17
 19.036813
  C 1.141271 -0.471245 -0.212302
  C 2.634638 -0.458145 -0.194825
  C 3.393984 -0.285189 -1.283813
  C 4.814517 -0.405209 -1.277391
  C 5.679339 -0.070218 -2.268355
  C 6.894291 -0.840276 -2.282910
  C 6.754891 -2.107319 -1.868240
  H 7.576744 -2.755738 -1.604572
  H 0.740576 -0.806856 0.740307
  H 0.771743 -1.126851 -0.999845
  H 0.752671 0.528531 -0.412080
  H 3.112496 -0.589952 0.766912
  H 2.907999 -0.156066 -2.243847
  H 5.238088 -0.726920 -0.333707
  H 5.428254 0.648937 -3.034757
  H 7.852448 -0.420476 -2.557554
  H 5.808625 -2.600549 -2.006900
 17
 31.872143
  C 1.190721 -0.555315 -0.258526
  C 2.682311 -0.501012 -0.229994
  C 3.447779 -0.334369 -1.318420
  C 4.867633 -0.376746 -1.294772
  C 5.724714 -0.011861 -2.314189
  C 6.860247 -0.852187 -2.298205
  C 6.551399 -2.053424 -1.732053
  H 7.288977 -2.703686 -1.277819
  H 0.790723 -0.879292 0.698427
  H 0.844388 -1.237641 -1.033907
  H 0.778880 0.429561 -0.484228
  H 3.156212 -0.595023 0.738115
  H 2.970553 -0.248170 -2.287851
  H 5.297812 -0.538999 -0.315783
  H 5.479424 0.728378 -3.060191
  H 7.862821 -0.573911 -2.591434
  H 5.629237 -2.539151 -1.992004
 17
 39.991190
  C 1.246600 -0.645118 -0.282295
  C 2.736684 -0.557903 -0.247857
  C 3.504005 -0.413772 -1.333754
  C 4.943446 -0.387025 -1.300787
  C 5.769293 0.026925 -2.384519
  C 6.821849 -0.849435 -2.350791
  C 6.332233 -1.944965 -1.610364
  H 6.970899 -2.554945 -0.979288
  H 0.848408 -0.944017 0.683539
  H 0.919091 -1.360459 -1.034540
  H 0.816284 0.322697 -0.543427
  H 3.204892 -0.603548 0.726120
  H 3.036942 -0.381579 -2.310812
  H 5.374839 -0.394579 -0.309930
  H 5.503969 0.771334 -3.117916
  H 7.847753 -0.707613 -2.653264
  H 5.458274 -2.466271 -1.958795
 17
 31.292465
  C 1.294859 -0.719855 -0.296164
  C 2.785565 -0.607261 -0.246583
  C 3.559829 -0.496819 -1.320903
  C 5.035883 -0.439806 -1.289509
  C 5.804838 0.038339 -2.442618
  C 6.788049 -0.868391 -2.412433
  C 6.129072 -1.837345 -1.548557
  H 6.683125 -2.410409 -0.810667
  H 0.889985 -0.979271 0.678098
  H 0.989379 -1.477021 -1.016912
  H 0.851411 0.226380 -0.608118
  H 3.239640 -0.602243 0.736077
  H 3.113031 -0.511207 -2.307330
  H 5.469277 -0.320783 -0.302435
  H 5.515303 0.777249 -3.168012
  H 7.820965 -0.824870 -2.707898
  H 5.301167 -2.401319 -1.958952
 17
 14.452417
  C 1.331443 -0.744503 -0.296342
  C 2.820330 -0.604326 -0.236092
  C 3.601774 -0.560654 -1.296364
  C 5.083761 -0.469286 -1.257053
  C 5.835785 0.095937 -2.426978
  C 6.735545 -0.896245 -2.474457
  C 5.990394 -1.764539 -1.520900
  H 6.507995 -2.283242 -0.717422
  H 0.917757 -0.931914 0.690602
  H 1.047496 -1.562402 -0.956618
  H 0.878200 0.166574 -0.688042
  H 3.257813 -0.514714 0.749441
  H 3.175406 -0.644567 -2.288169
  H 5.472243 -0.160052 -0.286753
  H 5.563499 0.885574 -3.103939
  H 7.750621 -0.954429 -2.823403
  H 5.276381 -2.430299 -2.002315
 17
 9.306421
  C 1.321895 -0.683301 -0.298537
  C 2.818253 -0.565880 -0.245453
  C 3.615637 -0.727781 -1.290950
  C 5.088187 -0.573274 -1.215520
  C 5.842561 0.154953 -2.296276
  C 6.715825 -0.837361 -2.500824
  C 6.001493 -1.786029 -1.587961
  H 6.534543 -2.350432 -0.826346
  H 0.894119 -0.679568 0.699574
  H 1.019919 -1.601355 -0.804888
  H 0.898104 0.150262 -0.853590
  H 3.249102 -0.349715 0.724172
  H 3.193011 -0.984328 -2.252312
  H 5.381978 -0.198830 -0.230209
  H 5.566177 1.034291 -2.850917
  H 7.698503 -0.890386 -2.927333
  H 5.407135 -2.484355 -2.177431
 17
 3.423671
  C 1.323978 -0.674484 -0.389354
  C 2.806657 -0.526960 -0.247820
  C 3.674311 -0.773340 -1.217053
  C 5.147152 -0.601968 -1.093756
  C 5.818759 0.167347 -2.211572
  C 6.558136 -0.860421 -2.612836
  C 6.018269 -1.805032 -1.576951
  H 6.737161 -2.169733 -0.843784
  H 0.848270 -0.770104 0.583784
  H 1.075994 -1.546745 -0.990459
  H 0.904136 0.200912 -0.885321
  H 3.163104 -0.181312 0.714550
  H 3.326033 -1.118600 -2.182371
  H 5.409606 -0.250031 -0.093238
  H 5.698165 1.187016 -2.534095
  H 7.290784 -1.004303 -3.386924
  H 5.445928 -2.645331 -1.967603
