 28
 0.000000
  C 0.992285 0.151472 0.382824
  C 2.467204 0.162033 0.403287
  C 3.242746 0.616348 1.576319
  C 2.456259 1.087183 2.793595
  H 3.132395 1.392410 3.581611
  C 3.089490 -0.287805 -0.754776
  C 4.464467 -0.392448 -0.997653
  C 5.105069 -0.859371 -2.119505
  C 4.607299 -1.390077 -3.401268
  C 3.118103 -1.508144 -3.698405
  C 2.897654 -2.087704 -5.094060
  H 6.185742 -0.857215 -2.105274
  H 0.544650 0.505618 1.304439
  H 0.625237 -0.860406 0.190620
  H 0.628801 0.774304 -0.435681
  H 3.902474 1.430032 1.253393
  H 3.902935 -0.202266 1.885305
  H 1.822465 0.288993 3.175524
  H 1.821877 1.934142 2.538787
  H 2.420230 -0.597177 -1.542196
  H 5.109458 -0.060950 -0.192061
  H 5.064943 -2.381428 -3.518399
  H 5.070713 -0.776330 -4.185183
  H 2.645669 -0.525590 -3.658542
  H 2.639669 -2.169612 -2.974634
  H 3.340747 -1.451110 -5.856526
  H 1.833748 -2.170264 -5.302108
  H 3.334771 -3.080006 -5.179156
 28
 -0.002943
  C 0.973932 0.107538 0.442680
  C 2.440547 0.187404 0.391083
  C 3.237823 0.660823 1.542997
  C 2.466018 1.120231 2.772020
  H 3.165619 1.457753 3.532311
  C 3.041842 -0.272779 -0.779016
  C 4.422446 -0.432197 -0.977431
  C 5.067497 -0.914848 -2.090653
  C 4.593922 -1.417846 -3.385560
  C 3.113222 -1.463157 -3.736349
  C 2.916444 -2.028698 -5.140693
  H 6.148698 -0.944986 -2.018108
  H 0.526621 0.626146 1.279632
  H 0.773228 -0.963811 0.541746
  H 0.513894 0.406111 -0.496084
  H 3.875763 1.482043 1.196822
  H 3.926669 -0.138076 1.839400
  H 1.877474 0.310798 3.196052
  H 1.805296 1.951959 2.539115
  H 2.379371 -0.527148 -1.590021
  H 5.067516 -0.152515 -0.155234
  H 5.016173 -2.426853 -3.497252
  H 5.123861 -0.837440 -4.154127
  H 2.690566 -0.457897 -3.707551
  H 2.579547 -2.101122 -3.030523
  H 3.409456 -1.407022 -5.884341
  H 1.858738 -2.071498 -5.387448
  H 3.319927 -3.035916 -5.216073
 28
 3.418846
  C 0.973603 0.102148 0.479335
  C 2.431771 0.141579 0.399158
  C 3.241228 0.681629 1.516487
  C 2.473292 1.163637 2.738019
  H 3.174733 1.545379 3.475310
  C 3.021183 -0.333043 -0.766964
  C 4.397815 -0.516105 -0.946335
  C 5.055802 -0.969851 -2.065297
  C 4.595902 -1.442431 -3.378953
  C 3.122463 -1.428159 -3.760219
  C 2.936890 -1.951289 -5.181651
  H 6.135528 -1.010592 -1.976641
  H 0.502550 0.743316 1.207516
  H 0.966321 -0.931225 0.895573
  H 0.463798 0.028543 -0.472189
  H 3.831837 1.513645 1.119686
  H 3.961434 -0.077819 1.832739
  H 1.912561 0.354632 3.200628
  H 1.790428 1.971802 2.487365
  H 2.363964 -0.576641 -1.582121
  H 5.035281 -0.257010 -0.112310
  H 4.979163 -2.468204 -3.486799
  H 5.163843 -0.876651 -4.130353
  H 2.735635 -0.409666 -3.714066
  H 2.552995 -2.065581 -3.082188
  H 3.459568 -1.323079 -5.899383
  H 1.883919 -1.960801 -5.448309
  H 3.316754 -2.965279 -5.276740
 28
 19.025781
  C 0.961671 0.199415 0.462524
  C 2.403085 0.181431 0.388377
  C 3.238655 0.662269 1.529260
  C 2.470535 1.142258 2.752704
  H 3.175827 1.488355 3.504491
  C 3.008578 -0.253992 -0.802259
  C 4.375568 -0.483383 -0.956300
  C 5.036770 -0.981390 -2.052390
  C 4.589174 -1.429243 -3.383456
  C 3.113208 -1.439682 -3.758395
  C 2.928591 -1.991218 -5.169790
  H 6.111701 -1.066971 -1.940980
  H 0.446933 0.629393 1.300943
  H 1.360077 -0.880426 0.719307
  H 0.406064 0.079024 -0.454620
  H 3.846537 1.488015 1.150301
  H 3.927207 -0.126785 1.835141
  H 1.882709 0.342702 3.195710
  H 1.817178 1.976107 2.509197
  H 2.364952 -0.418382 -1.647096
  H 5.001978 -0.289232 -0.097796
  H 4.997453 -2.439974 -3.526740
  H 5.133684 -0.817240 -4.116269
  H 2.712164 -0.426256 -3.729167
  H 2.557371 -2.074472 -3.066084
  H 3.435122 -1.365435 -5.901433
  H 1.874477 -2.026003 -5.430104
  H 3.329188 -2.998939 -5.249035
 28
 34.909036
  C 0.940661 0.244003 0.474231
  C 2.359606 0.106442 0.425582
  C 3.228535 0.639177 1.538544
  C 2.474453 1.180745 2.748348
  H 3.189662 1.554894 3.475814
  C 2.977091 -0.332290 -0.789343
  C 4.347649 -0.521178 -0.948982
  C 5.021920 -0.982407 -2.051428
  C 4.584073 -1.439275 -3.385559
  C 3.110136 -1.436205 -3.773163
  C 2.934988 -1.950417 -5.199433
  H 6.098454 -1.036597 -1.943071
  H 0.436011 0.693325 1.308306
  H 1.680631 -0.893914 0.721830
  H 0.350992 -0.000693 -0.395158
  H 3.837417 1.441109 1.117216
  H 3.910426 -0.144890 1.873489
  H 1.884821 0.407159 3.233842
  H 1.826025 2.008390 2.473321
  H 2.324423 -0.540055 -1.619377
  H 4.976508 -0.272297 -0.105448
  H 4.977896 -2.456514 -3.511080
  H 5.142223 -0.843480 -4.119364
  H 2.712572 -0.421755 -3.721281
  H 2.546269 -2.085139 -3.102441
  H 3.466289 -1.318819 -5.908200
  H 1.883550 -1.956338 -5.476417
  H 3.315433 -2.965008 -5.296536
 28
 40.505746
  C 0.929176 0.287461 0.457744
  C 2.331623 0.030383 0.468708
  C 3.218840 0.627628 1.559616
  C 2.465896 1.223310 2.745219
  H 3.182928 1.617959 3.461084
  C 2.971239 -0.409500 -0.772221
  C 4.337204 -0.561495 -0.939747
  C 5.012221 -0.985949 -2.060477
  C 4.572377 -1.426312 -3.396338
  C 3.097558 -1.445387 -3.775597
  C 2.927596 -1.917882 -5.216060
  H 6.091220 -1.006320 -1.965275
  H 0.432789 0.787070 1.270473
  H 2.015773 -1.042969 0.730099
  H 0.329366 -0.031677 -0.377312
  H 3.826095 1.412000 1.104127
  H 3.898533 -0.140274 1.931400
  H 1.865636 0.473913 3.256534
  H 1.825941 2.047041 2.437215
  H 2.306519 -0.635100 -1.586300
  H 4.965880 -0.304691 -0.098441
  H 4.986528 -2.432268 -3.542103
  H 5.115241 -0.808538 -4.123669
  H 2.677861 -0.442992 -3.690332
  H 2.552379 -2.128638 -3.124506
  H 3.453017 -1.261185 -5.905169
  H 1.876846 -1.924517 -5.493257
  H 3.316169 -2.925275 -5.343347
 28
 42.266499
  C 0.934306 0.279418 0.475851
  C 2.322149 0.048369 0.478719
  C 3.210308 0.628777 1.573439
  C 2.457928 1.241549 2.748917
  H 3.174352 1.640807 3.462144
  C 2.964890 -0.426434 -0.767763
  C 4.339743 -0.571601 -0.937831
  C 5.008066 -0.984126 -2.060796
  C 4.562414 -1.422245 -3.395212
  C 3.084243 -1.444222 -3.766848
  C 2.908000 -1.911990 -5.209448
  H 6.088104 -0.997174 -1.972923
  H 0.440812 0.803580 1.269825
  H 2.299492 -1.119404 0.507754
  H 0.324473 -0.073489 -0.338062
  H 3.837151 1.401266 1.123982
  H 3.870890 -0.149401 1.957100
  H 1.852802 0.499843 3.263771
  H 1.822693 2.062910 2.430336
  H 2.296992 -0.626471 -1.589458
  H 4.967055 -0.313220 -0.095741
  H 4.979232 -2.427141 -3.545403
  H 5.099727 -0.801147 -4.123757
  H 2.661176 -0.442792 -3.676019
  H 2.543680 -2.133191 -3.116594
  H 3.429675 -1.251764 -5.899463
  H 1.855336 -1.918425 -5.482153
  H 3.297211 -2.919439 -5.342704
 28
 37.814336
  C 0.934252 0.247180 0.508512
  C 2.288331 0.059345 0.501812
  C 3.190318 0.653456 1.551349
  C 2.469328 1.307926 2.725088
  H 3.205112 1.705019 3.419175
  C 2.917266 -0.555191 -0.698016
  C 4.320428 -0.662843 -0.887796
  C 4.989668 -1.017547 -2.018964
  C 4.549785 -1.414629 -3.371637
  C 3.071800 -1.451416 -3.745124
  C 2.903925 -1.858882 -5.207935
  H 6.069585 -1.016135 -1.933798
  H 0.451996 0.789264 1.300074
  H 2.481932 -1.258857 0.245271
  H 0.297713 -0.140490 -0.267012
  H 3.822659 1.400866 1.065667
  H 3.845919 -0.122923 1.948396
  H 1.854204 0.590177 3.263330
  H 1.848110 2.136427 2.398467
  H 2.258602 -0.766309 -1.527241
  H 4.942011 -0.416504 -0.038237
  H 4.988672 -2.402886 -3.565173
  H 5.072731 -0.752589 -4.074699
  H 2.626673 -0.464399 -3.610431
  H 2.546397 -2.180624 -3.126912
  H 3.416934 -1.161897 -5.867898
  H 1.852040 -1.867979 -5.482791
  H 3.307455 -2.853663 -5.384485
 28
 28.951394
  C 0.951105 0.220578 0.507451
  C 2.295062 0.089112 0.505725
  C 3.199799 0.670720 1.544235
  C 2.486652 1.371084 2.696740
  H 3.225652 1.779933 3.381056
  C 2.902652 -0.630591 -0.668118
  C 4.323015 -0.717336 -0.870779
  C 4.993102 -1.032345 -2.012056
  C 4.550420 -1.387648 -3.372060
  C 3.072305 -1.438960 -3.735453
  C 2.898420 -1.819223 -5.203951
  H 6.073594 -1.028045 -1.930298
  H 0.433152 0.756476 1.281057
  H 2.547826 -1.417602 0.087069
  H 0.334749 -0.199171 -0.268521
  H 3.860912 1.385660 1.046923
  H 3.830401 -0.117890 1.961127
  H 1.861482 0.678828 3.254763
  H 1.874754 2.195217 2.340122
  H 2.245999 -0.741899 -1.520063
  H 4.940158 -0.494961 -0.011446
  H 5.002732 -2.362847 -3.598813
  H 5.061260 -0.699055 -4.058097
  H 2.614429 -0.460791 -3.579227
  H 2.560822 -2.185545 -3.126796
  H 3.385102 -1.096046 -5.854812
  H 1.843939 -1.850527 -5.466666
  H 3.324602 -2.799438 -5.406102
 28
 19.473835
  C 0.942705 0.224955 0.511601
  C 2.287802 0.068982 0.508383
  C 3.208825 0.643413 1.529390
  C 2.532047 1.425519 2.650169
  H 3.288640 1.823940 3.321359
  C 2.858657 -0.742097 -0.619812
  C 4.298752 -0.773819 -0.832124
  C 4.976743 -1.016601 -1.984779
  C 4.541241 -1.336556 -3.353465
  C 3.067358 -1.442191 -3.714364
  C 2.899841 -1.782804 -5.192605
  H 6.057264 -0.975351 -1.905569
  H 0.422560 0.799152 1.256615
  H 2.595470 -1.684303 -0.076931
  H 0.326956 -0.209775 -0.257882
  H 3.915547 1.298491 1.009528
  H 3.794615 -0.163584 1.979161
  H 1.870407 0.789503 3.232991
  H 1.961816 2.263130 2.256779
  H 2.233637 -0.744946 -1.505874
  H 4.906274 -0.577301 0.039812
  H 5.035742 -2.282471 -3.617717
  H 5.023604 -0.606482 -4.018172
  H 2.568046 -0.489416 -3.526614
  H 2.589066 -2.224988 -3.123900
  H 3.344365 -1.016447 -5.823510
  H 1.845670 -1.857631 -5.448065
  H 3.370626 -2.734209 -5.430120
 28
 16.950400
  C 0.944387 0.160760 0.579171
  C 2.289345 0.100905 0.497715
  C 3.208431 0.663459 1.523833
  C 2.539355 1.402320 2.676245
  H 3.300035 1.793525 3.347215
  C 2.849930 -0.625138 -0.683581
  C 4.301651 -0.712960 -0.851286
  C 4.989086 -1.019108 -1.981606
  C 4.554228 -1.369596 -3.344338
  C 3.080678 -1.431425 -3.712835
  C 2.904058 -1.830640 -5.175139
  H 6.068663 -1.015976 -1.888970
  H 0.432132 0.615523 1.406846
  H 2.469300 -1.637851 -0.451533
  H 0.314443 -0.233750 -0.200117
  H 3.898921 1.343091 1.013072
  H 3.816764 -0.146320 1.938548
  H 1.897663 0.740184 3.251846
  H 1.948217 2.240381 2.315698
  H 2.321013 -0.359431 -1.599809
  H 4.898640 -0.522662 0.028461
  H 5.009683 -2.346252 -3.564897
  H 5.074307 -0.691800 -4.034726
  H 2.620080 -0.450104 -3.573341
  H 2.563115 -2.159579 -3.087780
  H 3.394483 -1.120820 -5.837609
  H 1.849176 -1.859557 -5.436071
  H 3.322681 -2.816622 -5.363997
 28
 16.800334
  C 0.950667 0.019203 0.665461
  C 2.290968 0.076265 0.503591
  C 3.208687 0.711435 1.484348
  C 2.536627 1.451944 2.636242
  H 3.295623 1.935978 3.251872
  C 2.840393 -0.583372 -0.716692
  C 4.296226 -0.751397 -0.837367
  C 4.991431 -1.109694 -1.946177
  C 4.560910 -1.411864 -3.320758
  C 3.088354 -1.414198 -3.697035
  C 2.899986 -1.787251 -5.163030
  H 6.061452 -1.188555 -1.828296
  H 0.456730 0.343362 1.563056
  H 2.366184 -1.577341 -0.716075
  H 0.306041 -0.342188 -0.120657
  H 3.853669 1.408055 0.932808
  H 3.870348 -0.053547 1.903301
  H 1.979018 0.771323 3.272167
  H 1.859946 2.222691 2.268046
  H 2.430237 -0.102511 -1.610981
  H 4.876237 -0.587716 0.052445
  H 4.983097 -2.396919 -3.558399
  H 5.110537 -0.738283 -3.992711
  H 2.660756 -0.415613 -3.548414
  H 2.541214 -2.122836 -3.080568
  H 3.418137 -1.087632 -5.816224
  H 1.844918 -1.774081 -5.425532
  H 3.282074 -2.784702 -5.363405
 28
 15.314640
  C 0.943023 0.108317 0.608812
  C 2.286963 0.092095 0.494539
  C 3.205709 0.646331 1.528378
  C 2.536850 1.373095 2.690076
  H 3.298091 1.777182 3.352828
  C 2.856703 -0.508415 -0.745068
  C 4.313750 -0.653101 -0.865429
  C 5.001032 -1.033545 -1.971733
  C 4.556918 -1.392212 -3.330664
  C 3.081264 -1.444049 -3.687650
  C 2.884154 -1.884372 -5.134215
  H 6.077973 -1.086503 -1.864933
  H 0.440884 0.520070 1.465590
  H 2.385338 -1.494009 -0.883389
  H 0.309600 -0.299555 -0.159504
  H 3.903378 1.330983 1.033742
  H 3.805263 -0.176364 1.932028
  H 1.913190 0.699626 3.273407
  H 1.926489 2.200734 2.336514
  H 2.467661 0.052819 -1.606660
  H 4.904946 -0.447879 0.015338
  H 5.011625 -2.367092 -3.559323
  H 5.073762 -0.714637 -4.025520
  H 2.626249 -0.456961 -3.566700
  H 2.558208 -2.142369 -3.034633
  H 3.374992 -1.200563 -5.823544
  H 1.826111 -1.909271 -5.382643
  H 3.290339 -2.879801 -5.298626
