 22
 0.000000
  C 1.008948 0.114186 0.335767
  C 2.480001 0.125959 0.364864
  C 3.236691 0.599614 1.542946
  C 2.431007 1.081112 2.741497
  H 3.108884 1.397645 3.529124
  C 3.134235 -0.331466 -0.773488
  C 4.523017 -0.399950 -0.944909
  C 5.158199 -0.852807 -2.074207
  C 4.535567 -1.344373 -3.300128
  H 3.453974 -1.339678 -3.289110
  H 6.240654 -0.854235 -2.077956
  H 0.557348 0.481248 1.248706
  H 0.650881 -0.899589 0.145951
  H 0.650803 0.714466 -0.502892
  H 3.900318 1.409721 1.218398
  H 3.900662 -0.209517 1.869216
  H 1.800481 0.290025 3.139484
  H 1.800276 1.927575 2.481565
  H 2.500061 -0.657930 -1.585942
  H 5.140959 -0.069695 -0.122463
  H 4.897842 -2.355076 -3.501633
  H 4.898292 -0.753204 -4.144140
 22
 4.612401
  C 1.029985 0.111069 0.327954
  C 2.487030 0.139218 0.397587
  C 3.216284 0.615194 1.581240
  C 2.382809 1.089542 2.762671
  H 3.042332 1.411619 3.563991
  C 3.181732 -0.302179 -0.700854
  C 4.547864 -0.397968 -0.939569
  C 5.132639 -0.866659 -2.108306
  C 4.483277 -1.354046 -3.324354
  H 3.396432 -1.345186 -3.303293
  H 6.214441 -0.877613 -2.135283
  H 0.552593 0.473322 1.228841
  H 0.690579 -0.906395 0.122162
  H 0.690423 0.702792 -0.524871
  H 3.884158 1.425302 1.265004
  H 3.884813 -0.187917 1.913327
  H 1.753467 0.292174 3.150886
  H 1.753036 1.933609 2.491591
  H 2.753237 -0.664277 -1.602324
  H 5.237160 -0.083935 -0.156903
  H 4.834727 -2.368596 -3.531804
  H 4.835352 -0.764234 -4.175172
 22
 14.702771
  C 1.025851 0.101572 0.304139
  C 2.499543 0.145666 0.412466
  C 3.209468 0.632116 1.622222
  C 2.350223 1.101375 2.792897
  H 2.992686 1.428223 3.606166
  C 3.235710 -0.289965 -0.671778
  C 4.583815 -0.404129 -0.955023
  C 5.115406 -0.874378 -2.126859
  C 4.431582 -1.357380 -3.332411
  H 3.345523 -1.342933 -3.298760
  H 6.201214 -0.898065 -2.184204
  H 0.519988 0.458447 1.192096
  H 0.701887 -0.921414 0.086452
  H 0.701138 0.688814 -0.561038
  H 3.880892 1.445192 1.315356
  H 3.882351 -0.166352 1.962390
  H 1.721075 0.299851 3.169886
  H 1.719897 1.940534 2.511487
  H 2.977220 -0.668806 -1.615082
  H 5.326500 -0.104617 -0.207421
  H 4.771923 -2.375599 -3.545221
  H 4.773331 -0.769099 -4.189712
 22
 27.991784
  C 1.040036 0.101546 0.304002
  C 2.499745 0.151858 0.427930
  C 3.192577 0.639037 1.639365
  C 2.326156 1.101434 2.792837
  H 2.960476 1.431236 3.613526
  C 3.249312 -0.277273 -0.640019
  C 4.596041 -0.405586 -0.958294
  C 5.106377 -0.882121 -2.146143
  C 4.406128 -1.361713 -3.343178
  H 3.317875 -1.344038 -3.300811
  H 6.173930 -0.911987 -2.219239
  H 0.522199 0.457331 1.189155
  H 0.726358 -0.917117 0.083062
  H 0.725662 0.683380 -0.560640
  H 3.864654 1.452330 1.339971
  H 3.866122 -0.154467 1.985013
  H 1.694348 0.293915 3.163781
  H 1.693531 1.940504 2.502950
  H 3.143139 -0.666279 -1.608491
  H 5.366748 -0.118394 -0.241083
  H 4.739138 -2.378617 -3.558198
  H 4.740160 -0.775558 -4.201138
 22
 43.029394
  C 1.027834 0.100006 0.300533
  C 2.491758 0.152483 0.429176
  C 3.184489 0.640066 1.641343
  C 2.316195 1.105192 2.802198
  H 2.950978 1.434678 3.621986
  C 3.245012 -0.272504 -0.628613
  C 4.603756 -0.410298 -0.969589
  C 5.104588 -0.886964 -2.157759
  C 4.393079 -1.362241 -3.344767
  H 3.309646 -1.339802 -3.291367
  H 6.174516 -0.920339 -2.238823
  H 0.507865 0.454682 1.183209
  H 0.715305 -0.922371 0.077180
  H 0.714327 0.682751 -0.568335
  H 3.857830 1.452767 1.340237
  H 3.859578 -0.154041 1.985231
  H 1.685484 0.299903 3.173787
  H 1.684224 1.943091 2.514481
  H 3.272766 -0.662199 -1.599205
  H 5.400797 -0.130631 -0.270106
  H 4.718957 -2.381164 -3.561850
  H 4.720567 -0.776171 -4.205508
 22
 55.710561
  C 1.015746 0.102276 0.319458
  C 2.477924 0.155607 0.437641
  C 3.173417 0.648070 1.649546
  C 2.311822 1.109728 2.804198
  H 2.947642 1.441801 3.622168
  C 3.224863 -0.273295 -0.631253
  C 4.598601 -0.425722 -0.986269
  C 5.109963 -0.896713 -2.170792
  C 4.400240 -1.366842 -3.370821
  H 3.317999 -1.339208 -3.318716
  H 6.189531 -0.932272 -2.243854
  H 0.500301 0.457933 1.205039
  H 0.703170 -0.918181 0.099102
  H 0.698191 0.682000 -0.546777
  H 3.844148 1.461571 1.346495
  H 3.850720 -0.143674 1.992579
  H 1.683025 0.302150 3.177327
  H 1.676585 1.946246 2.515332
  H 3.363792 -0.665087 -1.614329
  H 5.399219 -0.150152 -0.270639
  H 4.719771 -2.381915 -3.590594
  H 4.730824 -0.780575 -4.223768
 22
 66.523120
  C 0.996029 0.070310 0.340218
  C 2.477198 0.144657 0.418166
  C 3.184261 0.678726 1.636649
  C 2.312944 1.131958 2.794494
  H 2.950342 1.477872 3.604382
  C 3.201356 -0.269855 -0.623174
  C 4.579400 -0.486408 -1.002267
  C 5.126461 -0.924409 -2.168691
  C 4.426828 -1.341989 -3.398452
  H 3.333836 -1.281299 -3.342973
  H 6.199363 -0.981953 -2.218312
  H 0.515155 0.433702 1.232729
  H 0.669209 -0.953542 0.151945
  H 0.660112 0.654115 -0.519074
  H 3.835145 1.509351 1.335320
  H 3.865152 -0.113228 1.977623
  H 1.700807 0.317525 3.174751
  H 1.666217 1.959064 2.510195
  H 3.405368 -0.652067 -1.616115
  H 5.348793 -0.254140 -0.232745
  H 4.707689 -2.368388 -3.653891
  H 4.785504 -0.727685 -4.230081
 22
 70.555222
  C 0.965437 0.043901 0.384059
  C 2.466437 0.135676 0.416999
  C 3.184936 0.711410 1.625096
  C 2.315908 1.160407 2.776144
  H 2.959652 1.532026 3.565824
  C 3.180391 -0.271640 -0.611359
  C 4.563425 -0.569924 -1.027924
  C 5.148570 -0.965375 -2.174085
  C 4.474406 -1.302686 -3.443124
  H 3.382676 -1.198518 -3.398159
  H 6.237480 -1.059864 -2.189230
  H 0.515725 0.420626 1.297864
  H 0.651411 -0.982257 0.238208
  H 0.594521 0.619836 -0.455790
  H 3.793527 1.544603 1.299886
  H 3.864663 -0.059870 1.969846
  H 1.731703 0.344471 3.182439
  H 1.654986 1.969076 2.489174
  H 3.427675 -0.647594 -1.622847
  H 5.268613 -0.412398 -0.205938
  H 4.712088 -2.325934 -3.731722
  H 4.865445 -0.663865 -4.234376
 22
 74.788506
  C 0.966432 0.021068 0.411274
  C 2.453929 0.124998 0.422018
  C 3.187492 0.737362 1.623067
  C 2.310739 1.198924 2.784711
  H 2.959478 1.598813 3.569608
  C 3.148085 -0.285852 -0.603958
  C 4.536517 -0.635220 -1.039498
  C 5.146594 -0.999934 -2.182700
  C 4.504225 -1.268308 -3.490654
  H 3.414778 -1.131414 -3.477809
  H 6.222748 -1.124744 -2.162193
  H 0.535427 0.402029 1.316146
  H 0.666169 -1.011331 0.287114
  H 0.572289 0.582973 -0.430573
  H 3.783256 1.583113 1.266192
  H 3.888626 -0.028288 1.980487
  H 1.738960 0.373478 3.215216
  H 1.627858 1.998627 2.486275
  H 3.441307 -0.663480 -1.608542
  H 5.207165 -0.535086 -0.171083
  H 4.724570 -2.284214 -3.807795
  H 4.938153 -0.614824 -4.243952
 22
 78.413617
  C 0.941605 0.003669 0.454444
  C 2.439171 0.116541 0.439778
  C 3.181443 0.755624 1.606314
  C 2.323884 1.231259 2.760813
  H 2.975029 1.650837 3.520713
  C 3.121471 -0.308225 -0.590327
  C 4.525829 -0.701798 -1.037137
  C 5.154635 -1.030103 -2.181658
  C 4.537471 -1.217240 -3.516211
  H 3.461059 -1.045466 -3.523678
  H 6.218851 -1.187863 -2.138172
  H 0.519199 0.402561 1.368335
  H 0.644653 -1.040254 0.353841
  H 0.526187 0.549344 -0.393815
  H 3.760123 1.596636 1.220700
  H 3.891229 0.006847 1.969984
  H 1.771654 0.417202 3.213762
  H 1.635541 2.010581 2.456863
  H 3.464511 -0.702023 -1.595624
  H 5.164925 -0.664506 -0.140864
  H 4.735365 -2.228694 -3.875340
  H 5.012087 -0.542474 -4.231115
 22
 81.780362
  C 0.918501 -0.019235 0.492310
  C 2.416756 0.101387 0.442111
  C 3.181855 0.770778 1.572701
  C 2.346903 1.271021 2.742285
  H 3.016472 1.714267 3.478238
  C 3.076325 -0.340283 -0.596326
  C 4.489958 -0.770555 -1.031567
  C 5.153335 -1.057105 -2.170056
  C 4.580146 -1.158078 -3.532028
  H 3.509591 -0.953723 -3.568533
  H 6.214291 -1.246610 -2.093581
  H 0.516163 0.391914 1.402250
  H 0.628623 -1.058244 0.419323
  H 0.481419 0.503816 -0.351650
  H 3.743800 1.605034 1.152616
  H 3.906387 0.034966 1.937931
  H 1.810627 0.462269 3.229808
  H 1.643568 2.041037 2.436775
  H 3.471268 -0.747782 -1.588503
  H 5.083745 -0.801446 -0.110958
  H 4.763602 -2.152554 -3.934671
  H 5.098288 -0.464300 -4.193152
 22
 84.664157
  C 0.910030 -0.025658 0.508873
  C 2.411441 0.088609 0.447690
  C 3.185576 0.778595 1.564309
  C 2.360459 1.298028 2.725040
  H 3.033424 1.752575 3.446516
  C 3.062395 -0.369758 -0.584021
  C 4.475310 -0.811385 -1.027863
  C 5.152575 -1.074256 -2.166081
  C 4.600969 -1.116783 -3.538264
  H 3.537952 -0.885845 -3.584934
  H 6.203807 -1.287474 -2.079247
  H 0.516259 0.401067 1.411429
  H 0.615439 -1.067676 0.456255
  H 0.468509 0.485195 -0.340595
  H 3.744943 1.606418 1.126158
  H 3.911224 0.050489 1.937374
  H 1.828737 0.501343 3.228794
  H 1.658652 2.059906 2.410775
  H 3.488546 -0.791284 -1.572731
  H 5.052818 -0.864514 -0.096199
  H 4.767330 -2.100806 -3.970719
  H 5.145351 -0.414697 -4.167237
 22
 86.298977
  C 0.914310 -0.035656 0.528845
  C 2.411616 0.078720 0.458834
  C 3.187424 0.797660 1.555972
  C 2.359615 1.341608 2.711927
  H 3.035614 1.817440 3.423487
  C 3.062778 -0.400827 -0.564937
  C 4.467870 -0.878182 -1.024952
  C 5.156255 -1.103734 -2.169238
  C 4.620075 -1.057649 -3.548529
  H 3.564332 -0.787125 -3.595770
  H 6.205703 -1.353820 -2.079613
  H 0.520922 0.413930 1.431592
  H 0.622421 -1.079804 0.500822
  H 0.467336 0.455958 -0.331686
  H 3.741377 1.617119 1.096607
  H 3.919333 0.081460 1.941959
  H 1.830603 0.549226 3.239208
  H 1.649101 2.097836 2.380886
  H 3.498661 -0.872828 -1.561817
  H 5.034999 -0.981777 -0.097049
  H 4.761898 -2.023981 -4.031603
  H 5.198382 -0.344120 -4.135253
 22
 87.336159
  C 0.943023 -0.036687 0.517492
  C 2.436646 0.078471 0.474123
  C 3.194800 0.820121 1.576479
  C 2.345880 1.380984 2.703697
  H 3.003517 1.867947 3.416760
  C 3.110936 -0.414556 -0.524244
  C 4.477563 -0.928057 -1.020325
  C 5.155498 -1.127384 -2.182307
  C 4.608729 -1.012100 -3.554382
  H 3.558589 -0.707752 -3.581332
  H 6.195794 -1.406775 -2.109454
  H 0.534786 0.425001 1.400160
  H 0.650195 -1.090549 0.501867
  H 0.508885 0.444326 -0.363853
  H 3.757977 1.636154 1.111621
  H 3.921128 0.111226 1.989429
  H 1.809638 0.599945 3.231302
  H 1.643764 2.125258 2.346959
  H 3.522677 -0.938418 -1.532271
  H 5.043466 -1.074181 -0.102436
  H 4.717528 -1.955876 -4.075387
  H 5.199301 -0.295862 -4.114689
