 26
 0.000000
  C 1.001843 0.119379 0.347920
  C 2.477088 0.129617 0.373503
  C 3.239927 0.603512 1.553045
  C 2.442758 1.088858 2.760839
  C 3.382949 1.536713 3.876116
  C 3.128325 -0.328631 -0.767674
  C 4.511108 -0.397875 -0.940480
  C 5.172020 -0.853169 -2.075665
  C 4.554691 -1.352202 -3.319166
  H 3.475032 -1.350178 -3.314138
  O 6.482012 -0.866428 -2.109893
  H 0.553069 0.486842 1.262475
  H 0.642307 -0.893915 0.162557
  H 0.642377 0.722925 -0.486882
  H 3.899515 1.417169 1.230838
  H 3.899398 -0.206954 1.883363
  H 1.805716 0.288367 3.140924
  H 1.806023 1.930023 2.481422
  H 4.018463 0.716659 4.203084
  H 2.812928 1.881897 4.735182
  H 4.018779 2.354851 3.544961
  H 2.497508 -0.655423 -1.581293
  H 5.134452 -0.068413 -0.119966
  H 4.920537 -2.362494 -3.506932
  H 4.920599 -0.752044 -4.153237
  H 6.914397 -0.541470 -1.299869
 26
 0.114983
  C 1.006223 0.219449 0.289775
  C 2.481072 0.237244 0.321373
  C 3.236554 0.682603 1.516618
  C 2.436155 1.044144 2.764866
  C 3.373158 1.438293 3.902563
  C 3.142697 -0.182118 -0.827400
  C 4.524725 -0.214517 -1.006703
  C 5.171427 -0.731098 -2.127086
  C 4.528313 -1.482254 -3.226403
  H 3.469750 -1.273315 -3.321937
  O 6.482623 -0.722885 -2.201234
  H 0.553774 0.560720 1.212228
  H 0.652097 -0.790470 0.073427
  H 0.647105 0.839171 -0.534084
  H 3.837465 1.555177 1.232727
  H 3.957277 -0.097439 1.784805
  H 1.834186 0.192780 3.086058
  H 1.768138 1.881933 2.558134
  H 4.043413 0.620253 4.156441
  H 2.802574 1.692386 4.792223
  H 3.973035 2.303561 3.630913
  H 2.520840 -0.528830 -1.639313
  H 5.151243 0.214795 -0.237013
  H 4.665996 -2.548661 -3.041011
  H 5.037753 -1.261649 -4.162516
  H 6.937889 -0.289525 -1.454327
 26
 8.973118
  C 0.979432 0.318173 0.290152
  C 2.449873 0.295769 0.307342
  C 3.225664 0.698924 1.501666
  C 2.451705 1.011921 2.776277
  C 3.413545 1.316654 3.919639
  C 3.093931 -0.073553 -0.871803
  C 4.473726 -0.129692 -1.070493
  C 5.060057 -0.571625 -2.257531
  C 4.613775 -1.656948 -3.159506
  H 3.542862 -1.644380 -3.351161
  O 6.395709 -0.543722 -2.270551
  H 0.545552 0.589954 1.243815
  H 0.592722 -0.657730 -0.016079
  H 0.633587 1.023050 -0.470403
  H 3.812461 1.584939 1.235185
  H 3.965741 -0.075628 1.726568
  H 1.835949 0.159511 3.059775
  H 1.804944 1.874872 2.626006
  H 4.079138 0.477727 4.101449
  H 2.860858 1.511355 4.836680
  H 4.016154 2.193692 3.698981
  H 2.467388 -0.427908 -1.675646
  H 5.122992 0.329692 -0.335024
  H 4.895549 -2.601188 -2.694872
  H 5.143888 -1.580448 -4.105518
  H 6.817983 -0.113364 -1.504316
 26
 41.361813
  C 0.901181 0.423602 0.368465
  C 2.369774 0.346442 0.339363
  C 3.194610 0.689499 1.512242
  C 2.476000 1.028868 2.811615
  C 3.487204 1.279863 3.924320
  C 2.967239 -0.064422 -0.850433
  C 4.353343 -0.137019 -1.102656
  C 4.790981 -0.629440 -2.327724
  C 4.858027 -1.771209 -3.290897
  H 3.890455 -2.037336 -3.725468
  O 6.202166 -0.601332 -2.144549
  H 0.511455 0.737278 1.326337
  H 0.469609 -0.542012 0.100815
  H 0.556914 1.118488 -0.399093
  H 3.814982 1.553914 1.236277
  H 3.909590 -0.117539 1.704354
  H 1.823075 0.210450 3.111601
  H 1.874889 1.925823 2.682695
  H 4.107311 0.400828 4.088540
  H 2.976706 1.514164 4.854194
  H 4.139448 2.119478 3.677800
  H 2.308159 -0.430588 -1.626146
  H 5.016475 0.439011 -0.479513
  H 5.277923 -2.623717 -2.772636
  H 5.532221 -1.478796 -4.094190
  H 6.551069 -0.224851 -1.319050
 26
 66.177700
  C 0.829322 0.443663 0.447414
  C 2.314015 0.336304 0.366977
  C 3.186058 0.703591 1.499299
  C 2.511397 1.027036 2.831503
  C 3.554776 1.300517 3.907332
  C 2.870656 -0.120020 -0.828764
  C 4.247995 -0.170935 -1.141327
  C 4.650610 -0.837734 -2.285638
  C 5.022271 -1.753457 -3.402533
  H 4.168064 -2.051828 -4.017166
  O 6.087611 -0.874532 -1.886903
  H 0.476574 0.810251 1.408587
  H 0.374856 -0.526869 0.244969
  H 0.469453 1.114156 -0.329380
  H 3.774064 1.578268 1.192667
  H 3.925240 -0.100648 1.665758
  H 1.886352 0.185905 3.151394
  H 1.875912 1.905852 2.731308
  H 4.207969 0.441689 4.043018
  H 3.073667 1.511968 4.854827
  H 4.171481 2.160589 3.645525
  H 2.178590 -0.499958 -1.582966
  H 4.925900 0.473448 -0.613882
  H 5.515151 -2.638383 -3.004696
  H 5.718237 -1.203027 -4.025344
  H 6.313751 -0.567582 -0.989345
 26
 93.551703
  C 0.858137 0.385092 0.380222
  C 2.350193 0.316586 0.322280
  C 3.201852 0.689749 1.476789
  C 2.508568 1.010363 2.807958
  C 3.568718 1.316872 3.864989
  C 2.911881 -0.087742 -0.872948
  C 4.357643 -0.055018 -1.156419
  C 4.573136 -0.753801 -2.283026
  C 4.867629 -1.677732 -3.356105
  H 3.965560 -2.039936 -3.843033
  O 6.177898 -1.060982 -1.598703
  H 0.509527 0.713248 1.357724
  H 0.424192 -0.579333 0.131321
  H 0.489034 1.082750 -0.363361
  H 3.780015 1.573132 1.186198
  H 3.953497 -0.088604 1.642219
  H 1.912754 0.155473 3.152224
  H 1.854876 1.877362 2.698214
  H 4.238766 0.465237 3.990990
  H 3.094907 1.534360 4.825147
  H 4.159690 2.176974 3.580069
  H 2.214682 -0.432939 -1.646944
  H 4.952845 0.664964 -0.650793
  H 5.459945 -2.513032 -2.986994
  H 5.454022 -1.129682 -4.089276
  H 6.447607 -0.894745 -0.684639
 26
 108.026993
  C 0.849606 0.395928 0.360866
  C 2.323697 0.326314 0.283193
  C 3.202782 0.693392 1.429222
  C 2.525721 0.993797 2.779303
  C 3.611332 1.274482 3.830301
  C 2.865709 -0.081795 -0.905702
  C 4.357173 -0.006990 -1.196664
  C 4.477729 -0.752548 -2.269674
  C 4.826859 -1.637909 -3.318688
  H 3.923731 -2.033330 -3.816346
  O 6.209017 -1.146779 -1.342541
  H 0.544501 0.739982 1.333094
  H 0.421816 -0.580647 0.133472
  H 0.456138 1.086409 -0.383284
  H 3.779235 1.581317 1.146779
  H 3.946206 -0.098189 1.568012
  H 1.923962 0.143409 3.111890
  H 1.869128 1.862855 2.689029
  H 4.272483 0.421453 3.939467
  H 3.165665 1.491632 4.803358
  H 4.213811 2.134682 3.543057
  H 2.179511 -0.419206 -1.659917
  H 4.933290 0.758944 -0.730864
  H 5.455304 -2.446957 -2.948897
  H 5.406361 -1.054166 -4.054566
  H 6.505951 -0.999365 -0.444795
 26
 120.021103
  C 0.857914 0.347188 0.362798
  C 2.327245 0.326836 0.259968
  C 3.214971 0.704183 1.402809
  C 2.553600 0.948075 2.765032
  C 3.639685 1.258100 3.812649
  C 2.853098 -0.048419 -0.928564
  C 4.357609 0.079318 -1.223128
  C 4.455475 -0.647962 -2.305674
  C 4.745211 -1.622254 -3.296196
  H 3.804438 -2.090549 -3.712559
  O 6.294121 -1.099881 -1.239376
  H 0.560757 0.666159 1.335338
  H 0.445337 -0.641551 0.141212
  H 0.418017 1.029033 -0.371751
  H 3.748226 1.627029 1.129064
  H 3.982313 -0.067073 1.512356
  H 1.991610 0.068337 3.084209
  H 1.861518 1.793840 2.707087
  H 4.335016 0.429995 3.903604
  H 3.200114 1.439446 4.794146
  H 4.202343 2.153108 3.534308
  H 2.162016 -0.401870 -1.685340
  H 4.892355 0.876737 -0.769583
  H 5.413445 -2.396847 -2.880652
  H 5.286833 -1.115157 -4.123702
  H 6.600197 -0.973851 -0.342809
 26
 120.796963
  C 0.959262 0.287624 0.278367
  C 2.448660 0.303298 0.180552
  C 3.302013 0.718861 1.329918
  C 2.607487 0.913406 2.676736
  C 3.629280 1.243504 3.760222
  C 2.986628 -0.068849 -1.009273
  C 4.459148 0.163076 -1.216822
  C 4.464221 -0.613673 -2.246832
  C 4.412389 -1.615629 -3.214843
  H 3.388847 -1.929533 -3.473580
  O 6.435727 -0.992863 -0.849165
  H 0.611396 0.606074 1.254385
  H 0.583606 -0.717974 0.097652
  H 0.522788 0.940850 -0.473782
  H 3.799019 1.661383 1.073402
  H 4.088572 -0.030015 1.459797
  H 2.081774 0.000667 2.961696
  H 1.887174 1.730731 2.623991
  H 4.359406 0.442784 3.863708
  H 3.133056 1.365589 4.720080
  H 4.159336 2.165459 3.532625
  H 2.308915 -0.413367 -1.772550
  H 4.894183 1.018609 -0.743708
  H 4.969596 -2.497151 -2.865368
  H 4.891597 -1.238987 -4.131877
  H 6.773847 -0.809449 0.030009
 26
 97.625534
  C 1.063695 0.289658 0.307017
  C 2.563194 0.290524 0.218097
  C 3.407254 0.711543 1.385763
  C 2.687044 0.968662 2.711071
  C 3.695837 1.278622 3.811601
  C 3.100815 -0.116338 -0.936934
  C 4.592605 -0.030402 -1.243460
  C 4.522339 -0.738401 -2.420100
  C 4.479642 -1.665177 -3.432821
  H 3.463529 -1.855581 -3.793599
  O 5.682918 -0.748291 -0.458969
  H 0.716286 0.642672 1.270072
  H 0.674459 -0.716574 0.150792
  H 0.643255 0.927445 -0.463232
  H 3.939901 1.630189 1.113054
  H 4.165737 -0.060617 1.567858
  H 2.109166 0.088790 3.001369
  H 2.003461 1.815600 2.617939
  H 4.390814 0.452619 3.944452
  H 3.186192 1.439199 4.757235
  H 4.265211 2.174340 3.576774
  H 2.427753 -0.509485 -1.689697
  H 5.045667 0.957282 -1.091005
  H 4.934727 -2.631076 -3.159355
  H 5.031475 -1.248355 -4.286729
  H 5.720294 -0.413158 0.447833
 26
 82.500788
  C 1.160260 0.199177 0.183601
  C 2.657496 0.243270 0.143833
  C 3.449665 0.677062 1.335311
  C 2.679516 0.927444 2.629177
  C 3.645468 1.275694 3.758303
  C 3.256218 -0.098188 -1.019667
  C 4.865984 -0.000504 -1.108011
  C 4.362924 -0.481027 -2.302626
  C 4.195177 -1.552673 -3.238107
  H 3.158598 -1.825632 -3.407135
  O 5.719163 -0.835140 -0.403746
  H 0.771410 0.505035 1.145943
  H 0.803007 -0.808811 -0.021441
  H 0.742338 0.857314 -0.578610
  H 3.981808 1.598434 1.076304
  H 4.201871 -0.083745 1.550374
  H 2.117754 0.038309 2.911667
  H 1.981998 1.755777 2.503290
  H 4.347428 0.461484 3.938602
  H 3.096599 1.456661 4.683227
  H 4.212680 2.176138 3.522189
  H 2.550769 -0.468586 -1.752412
  H 5.197357 1.034349 -1.012378
  H 4.753246 -2.444167 -2.924880
  H 4.609157 -1.230967 -4.199652
  H 5.910955 -0.515705 0.491796
 26
 52.231807
  C 1.054718 0.195727 0.133847
  C 2.534182 0.262169 0.021752
  C 3.366946 0.666005 1.195254
  C 2.645850 0.897187 2.526769
  C 3.657566 1.186299 3.632877
  C 3.052500 -0.052641 -1.201540
  C 5.138690 -0.035969 -0.959180
  C 4.260808 -0.300000 -2.018693
  C 4.158739 -1.460828 -2.925511
  H 3.153827 -1.869041 -2.957704
  O 6.033130 -0.899242 -0.559148
  H 0.703152 0.487226 1.118938
  H 0.707123 -0.813251 -0.073398
  H 0.591805 0.853384 -0.601216
  H 3.880622 1.602857 0.937339
  H 4.135866 -0.092750 1.360939
  H 2.079050 0.002690 2.802039
  H 1.958628 1.739505 2.450922
  H 4.349789 0.355534 3.754259
  H 3.148299 1.328332 4.580894
  H 4.229002 2.084104 3.414508
  H 2.265850 -0.371776 -1.901022
  H 5.288210 0.990108 -0.662583
  H 4.857648 -2.237052 -2.619054
  H 4.424850 -1.160309 -3.942667
  H 6.442365 -0.733852 0.311955
 26
 15.748750
  C 0.891038 0.340813 0.153478
  C 2.362922 0.274095 0.019508
  C 3.252365 0.631150 1.155050
  C 2.609040 0.826606 2.527226
  C 3.677523 1.103098 3.577054
  C 2.842715 -0.149633 -1.202383
  C 5.248515 -0.072819 -0.908324
  C 4.141990 -0.399029 -1.699491
  C 4.276673 -1.462837 -2.737118
  H 3.356225 -2.021325 -2.867092
  O 6.320241 -0.821353 -0.900396
  H 0.571831 0.720925 1.109733
  H 0.462825 -0.650718 0.015422
  H 0.471425 0.964556 -0.634161
  H 3.773841 1.559429 0.900086
  H 4.017034 -0.148255 1.245854
  H 2.057737 -0.068264 2.814303
  H 1.918186 1.667633 2.508525
  H 4.375992 0.274956 3.647962
  H 3.221125 1.238957 4.552253
  H 4.232871 2.005520 3.338648
  H 2.073315 -0.410383 -1.923095
  H 5.306208 0.927208 -0.495486
  H 5.095657 -2.128534 -2.468543
  H 4.539077 -1.016902 -3.698600
  H 6.986511 -0.585475 -0.231970
 26
 7.732519
  C 0.905680 0.436910 0.137886
  C 2.370005 0.251902 0.065697
  C 3.228956 0.600603 1.219319
  C 2.537816 0.851945 2.561303
  C 3.577380 1.083400 3.655308
  C 2.852370 -0.294792 -1.110639
  C 5.328157 -0.148828 -0.954502
  C 4.153769 -0.593984 -1.555781
  C 4.299724 -1.496362 -2.733628
  H 3.396694 -2.066044 -2.916961
  O 6.480181 -0.634630 -1.336546
  H 0.579302 0.917692 1.054119
  H 0.408457 -0.531357 0.057554
  H 0.560218 1.019677 -0.716280
  H 3.781593 1.512081 0.961884
  H 3.965726 -0.193768 1.360037
  H 1.925667 -0.009972 2.831763
  H 1.894112 1.730196 2.506905
  H 4.226785 0.220964 3.763808
  H 3.087869 1.255847 4.610943
  H 4.190794 1.953221 3.431866
  H 2.082838 -0.594167 -1.814150
  H 5.314923 0.637415 -0.213807
  H 5.138832 -2.173482 -2.581783
  H 4.524266 -0.911214 -3.627249
  H 7.250297 -0.266403 -0.877705
 26
 8.034949
  C 0.894055 0.261762 0.200559
  C 2.366441 0.172384 0.097709
  C 3.229879 0.545629 1.240273
  C 2.548343 0.889602 2.567423
  C 3.596546 1.221975 3.627534
  C 2.858785 -0.288404 -1.114067
  C 5.350509 -0.190897 -0.946829
  C 4.161530 -0.559864 -1.568541
  C 4.314218 -1.380212 -2.808782
  H 3.363731 -1.549025 -3.305766
  O 6.479404 -0.663922 -1.403670
  H 0.548826 0.600181 1.170069
  H 0.448822 -0.709853 -0.012984
  H 0.510417 0.935194 -0.568864
  H 3.822152 1.417627 0.940417
  H 3.937397 -0.267418 1.422673
  H 1.954459 0.044428 2.914711
  H 1.890466 1.750966 2.447520
  H 4.260603 0.380364 3.795971
  H 3.115100 1.462904 4.571930
  H 4.193129 2.080278 3.328560
  H 2.094475 -0.547049 -1.835155
  H 5.359428 0.488382 -0.108155
  H 4.751782 -2.344359 -2.547355
  H 5.005883 -0.904334 -3.503832
  H 7.270137 -0.408767 -0.893744
