 26
 0.000000
  C 1.008348 0.114814 0.336614
  C 2.484359 0.127587 0.368484
  C 3.242383 0.602792 1.551134
  C 2.439635 1.086949 2.755988
  C 3.375387 1.536226 3.874606
  C 3.139189 -0.330677 -0.771947
  C 4.523798 -0.396419 -0.936194
  C 5.182978 -0.851292 -2.070832
  C 4.555627 -1.349218 -3.312258
  H 3.472563 -1.341076 -3.292454
  O 6.493255 -0.866391 -2.109532
  H 0.555910 0.481639 1.249685
  H 0.651023 -0.899134 0.150565
  H 0.651118 0.718475 -0.499061
  H 3.902163 1.417217 1.231232
  H 3.902162 -0.206604 1.883679
  H 1.802576 0.285546 3.134128
  H 1.802840 1.927318 2.474535
  H 4.010967 0.717054 4.203738
  H 2.802126 1.880635 4.731755
  H 4.011158 2.355226 3.545580
  H 2.515295 -0.659288 -1.589930
  H 5.145190 -0.066749 -0.114932
  H 4.914071 -2.362232 -3.503364
  H 4.914368 -0.749269 -4.150395
  H 6.930793 -0.542170 -1.301363
 26
 1.352300
  C 1.008226 0.026257 0.356627
  C 2.481348 -0.023202 0.411696
  C 3.244750 0.535500 1.560707
  C 2.441448 1.125627 2.722412
  C 3.380496 1.681368 3.791384
  C 3.139162 -0.584882 -0.676000
  C 4.524039 -0.650362 -0.836742
  C 5.187217 -0.880777 -2.040501
  C 4.540238 -1.084193 -3.351952
  H 3.465803 -0.993292 -3.316204
  O 6.493428 -0.891894 -2.097293
  H 0.561884 0.418431 1.256357
  H 0.607901 -0.968032 0.162241
  H 0.695919 0.644089 -0.483669
  H 3.915291 1.316913 1.185174
  H 3.895483 -0.252907 1.958996
  H 1.811544 0.358584 3.177767
  H 1.798350 1.936596 2.370079
  H 4.023657 0.900516 4.189799
  H 2.809469 2.097257 4.617202
  H 4.008697 2.471415 3.385978
  H 2.517904 -0.931664 -1.493251
  H 5.142526 -0.464823 0.028877
  H 4.814641 -2.065898 -3.734642
  H 4.949231 -0.366650 -4.062366
  H 6.948593 -0.723417 -1.244377
 26
 2.650008
  C 1.000811 -0.129171 0.405397
  C 2.470115 -0.236023 0.471972
  C 3.243879 0.418294 1.555998
  C 2.456615 1.142065 2.644627
  C 3.405855 1.815246 3.631775
  C 3.123237 -0.839675 -0.588623
  C 4.515715 -0.915066 -0.736040
  C 5.179142 -0.912704 -1.954402
  C 4.520409 -0.763857 -3.271226
  H 3.466566 -0.533300 -3.191260
  O 6.489948 -0.920204 -2.020350
  H 0.554787 0.161197 1.349020
  H 0.561544 -1.065638 0.063373
  H 0.731149 0.622441 -0.339968
  H 3.937794 1.135081 1.104559
  H 3.875544 -0.342297 2.030162
  H 1.829955 0.434569 3.190917
  H 1.812923 1.903877 2.202997
  H 4.053408 1.083777 4.110472
  H 2.843462 2.324536 4.410517
  H 4.029336 2.552752 3.131467
  H 2.507864 -1.205183 -1.399359
  H 5.122603 -0.915620 0.160338
  H 4.648828 -1.686170 -3.839477
  H 5.029331 0.013544 -3.837877
  H 6.946616 -1.013525 -1.163384
 26
 7.500959
  C 0.967089 -0.231266 0.415224
  C 2.434326 -0.379423 0.468715
  C 3.245069 0.359021 1.471716
  C 2.494658 1.162265 2.529644
  C 3.474766 1.921005 3.419673
  C 3.067102 -1.091526 -0.522526
  C 4.474386 -1.194657 -0.657066
  C 5.158252 -0.898937 -1.819778
  C 4.509060 -0.390879 -3.050296
  H 3.469581 -0.135129 -2.893530
  O 6.470189 -0.921694 -1.883458
  H 0.547439 0.113507 1.352760
  H 0.493713 -1.166699 0.120561
  H 0.708383 0.500149 -0.353386
  H 3.918850 1.041130 0.943257
  H 3.900155 -0.363887 1.971822
  H 1.898288 0.495046 3.155135
  H 1.824887 1.880754 2.055883
  H 4.153137 1.236618 3.924399
  H 2.938415 2.482640 4.180679
  H 4.065176 2.624434 2.837131
  H 2.456486 -1.501095 -1.318134
  H 5.048132 -1.464118 0.221776
  H 4.582131 -1.152823 -3.827653
  H 5.057051 0.473997 -3.418495
  H 6.916341 -1.277293 -1.092739
 26
 14.086591
  C 0.935270 -0.303106 0.409664
  C 2.407616 -0.432882 0.412189
  C 3.254510 0.365558 1.342428
  C 2.540959 1.217756 2.385697
  C 3.550586 1.992127 3.227621
  C 3.018009 -1.223043 -0.518916
  C 4.440072 -1.364022 -0.653551
  C 5.154413 -0.835065 -1.703241
  C 4.520576 -0.082033 -2.811691
  H 3.481936 0.145422 -2.606127
  O 6.465269 -0.910016 -1.782539
  H 0.553451 0.105474 1.337827
  H 0.461560 -1.262438 0.208328
  H 0.632674 0.368821 -0.395782
  H 3.896785 1.025105 0.749637
  H 3.939187 -0.325221 1.848209
  H 1.947505 0.583118 3.047262
  H 1.870782 1.929141 1.901084
  H 4.228392 1.315511 3.743274
  H 3.038470 2.589721 3.977736
  H 4.140314 2.664016 2.608195
  H 2.399228 -1.761469 -1.229119
  H 4.965985 -1.897082 0.130271
  H 4.587022 -0.679514 -3.721794
  H 5.078990 0.831499 -3.005595
  H 6.891429 -1.433179 -1.079320
 26
 19.039850
  C 0.911317 -0.376909 0.399299
  C 2.389855 -0.500220 0.371395
  C 3.259303 0.312008 1.275491
  C 2.565827 1.250083 2.256015
  C 3.591904 2.040228 3.063314
  C 2.994714 -1.350914 -0.496770
  C 4.424932 -1.491948 -0.676029
  C 5.154726 -0.781030 -1.585755
  C 4.517200 0.149923 -2.550654
  H 3.486561 0.354505 -2.277740
  O 6.467605 -0.882549 -1.706133
  H 0.546770 0.014042 1.342772
  H 0.434207 -1.334026 0.198119
  H 0.591134 0.306338 -0.390826
  H 3.929151 0.898550 0.630962
  H 3.916594 -0.358036 1.838418
  H 1.946196 0.678815 2.950596
  H 1.920882 1.948404 1.720291
  H 4.240818 1.374557 3.628031
  H 3.091451 2.698914 3.768758
  H 4.210742 2.652571 2.411669
  H 2.383155 -2.029023 -1.081194
  H 4.912276 -2.244363 -0.068018
  H 4.539453 -0.287844 -3.549342
  H 5.096811 1.070047 -2.607216
  H 6.890246 -1.489192 -1.073396
 26
 12.540769
  C 0.918300 -0.448041 0.380129
  C 2.390620 -0.566767 0.336687
  C 3.261185 0.297449 1.181971
  C 2.571614 1.271494 2.128772
  C 3.602834 2.101404 2.888207
  C 2.980061 -1.497445 -0.476076
  C 4.382062 -1.633079 -0.725375
  C 5.143098 -0.748166 -1.456004
  C 4.544801 0.361186 -2.238709
  H 3.508142 0.526958 -1.970638
  O 6.447267 -0.857595 -1.590478
  H 0.562598 -0.017334 1.309236
  H 0.439230 -1.411008 0.219542
  H 0.590888 0.202976 -0.433415
  H 3.911345 0.866298 0.505861
  H 3.937005 -0.336355 1.762719
  H 1.964612 0.725975 2.854118
  H 1.917383 1.943645 1.571787
  H 4.262722 1.463681 3.472322
  H 3.107596 2.786800 3.571452
  H 4.209779 2.689336 2.203535
  H 2.353352 -2.263908 -0.922000
  H 4.843001 -2.547249 -0.362750
  H 4.598248 0.114941 -3.299156
  H 5.135000 1.265943 -2.106378
  H 6.852798 -1.576945 -1.075755
 26
 8.946230
  C 0.927382 -0.432375 0.309443
  C 2.394965 -0.570962 0.279556
  C 3.258243 0.347036 1.073892
  C 2.566159 1.272881 2.070178
  C 3.596725 2.123382 2.810606
  C 2.974230 -1.586780 -0.450109
  C 4.338635 -1.721204 -0.789453
  C 5.137721 -0.743601 -1.352390
  C 4.589778 0.454817 -2.029172
  H 3.528198 0.581134 -1.849701
  O 6.443315 -0.853235 -1.461417
  H 0.570382 0.069867 1.202282
  H 0.433308 -1.397327 0.208400
  H 0.616303 0.167225 -0.550816
  H 3.825666 0.971823 0.378888
  H 4.005994 -0.246104 1.606963
  H 2.007805 0.686206 2.803699
  H 1.868996 1.936477 1.555324
  H 4.301057 1.496955 3.353595
  H 3.104483 2.774511 3.528951
  H 4.155451 2.749196 2.118197
  H 2.336522 -2.410020 -0.754873
  H 4.771629 -2.707223 -0.640922
  H 4.750008 0.335719 -3.101830
  H 5.151468 1.341544 -1.739747
  H 6.828877 -1.635507 -1.030745
 26
 8.087346
  C 0.929285 -0.367348 0.231472
  C 2.396025 -0.522538 0.229251
  C 3.248109 0.456493 0.955125
  C 2.585917 1.233871 2.099241
  C 3.619932 2.090617 2.824267
  C 2.962422 -1.605910 -0.419061
  C 4.301710 -1.757257 -0.809156
  C 5.128328 -0.757543 -1.310878
  C 4.621610 0.469330 -1.977445
  H 3.546920 0.573665 -1.896339
  O 6.430471 -0.878973 -1.372263
  H 0.563717 0.183843 1.089570
  H 0.424570 -1.328997 0.169382
  H 0.640440 0.191356 -0.661385
  H 3.620842 1.198716 0.242325
  H 4.129401 -0.058917 1.345836
  H 2.143084 0.538361 2.814407
  H 1.800918 1.886967 1.718608
  H 4.413284 1.474026 3.241973
  H 3.153313 2.635655 3.641943
  H 4.067154 2.816523 2.148519
  H 2.327745 -2.472661 -0.571898
  H 4.699201 -2.765365 -0.787705
  H 4.886492 0.396520 -3.033732
  H 5.139344 1.350685 -1.604651
  H 6.790297 -1.698815 -0.983369
 26
 9.887436
  C 0.960501 -0.204809 0.093147
  C 2.414170 -0.449235 0.177083
  C 3.279194 0.520526 0.899798
  C 2.655351 1.170828 2.144012
  C 3.704859 1.984507 2.895557
  C 2.957118 -1.616470 -0.351398
  C 4.279437 -1.772404 -0.765948
  C 5.066958 -0.733570 -1.280057
  C 4.499019 0.384918 -2.070820
  H 3.413314 0.388541 -2.065272
  O 6.373523 -0.732794 -1.250638
  H 0.592776 0.449021 0.877172
  H 0.398092 -1.135060 0.093731
  H 0.748310 0.280757 -0.861843
  H 3.552557 1.337571 0.223732
  H 4.204918 0.026783 1.198108
  H 2.263721 0.396000 2.807491
  H 1.836865 1.836074 1.865512
  H 4.529823 1.353682 3.219323
  H 3.265711 2.441393 3.779319
  H 4.103472 2.778451 2.268863
  H 2.322051 -2.491496 -0.390869
  H 4.700584 -2.767664 -0.750279
  H 4.848757 0.259394 -3.097744
  H 4.899592 1.342421 -1.738393
  H 6.781956 -1.496580 -0.803689
 26
 15.395336
  C 1.050463 -0.034967 -0.045416
  C 2.476044 -0.367100 0.143651
  C 3.352980 0.557962 0.917193
  C 2.714664 1.116538 2.196212
  C 3.758297 1.856203 3.023447
  C 2.971667 -1.603090 -0.275119
  C 4.259709 -1.763873 -0.757553
  C 4.972948 -0.680548 -1.308044
  C 4.336799 0.265249 -2.256641
  H 3.263936 0.135593 -2.311068
  O 6.260705 -0.511806 -1.182837
  H 0.680995 0.686509 0.673871
  H 0.427835 -0.926196 -0.030895
  H 0.929889 0.405990 -1.036688
  H 3.631518 1.423737 0.300223
  H 4.271449 0.040743 1.196257
  H 2.302888 0.297102 2.787636
  H 1.908558 1.809049 1.955590
  H 4.567863 1.192868 3.314690
  H 3.307495 2.251645 3.928808
  H 4.177651 2.686646 2.465539
  H 2.337225 -2.471326 -0.174878
  H 4.713316 -2.746908 -0.774159
  H 4.769570 0.065622 -3.237702
  H 4.594223 1.297026 -2.024569
  H 6.721154 -1.175090 -0.633026
 26
 24.273388
  C 1.196765 0.119983 -0.169217
  C 2.583031 -0.288134 0.122683
  C 3.451031 0.564402 0.981720
  C 2.744729 1.104320 2.237203
  C 3.760317 1.754451 3.170258
  C 3.008851 -1.597866 -0.210076
  C 4.237540 -1.766067 -0.789404
  C 4.855656 -0.621058 -1.370847
  C 4.190886 0.130616 -2.453688
  H 3.143801 -0.124101 -2.547081
  O 6.101966 -0.292107 -1.174345
  H 0.824694 0.884968 0.505045
  H 0.526112 -0.735321 -0.169014
  H 1.160812 0.537598 -1.178742
  H 3.814872 1.434013 0.428455
  H 4.317466 -0.012479 1.306759
  H 2.248678 0.283648 2.759492
  H 1.994299 1.846571 1.968024
  H 4.511890 1.035629 3.493776
  H 3.261265 2.139806 4.057298
  H 4.264767 2.584640 2.678069
  H 2.369948 -2.440502 0.023989
  H 4.724798 -2.726197 -0.862463
  H 4.701885 -0.135750 -3.380070
  H 4.323975 1.205761 -2.337738
  H 6.591715 -0.842502 -0.533061
 26
 31.859141
  C 1.368776 0.245702 -0.295835
  C 2.710202 -0.224737 0.097448
  C 3.545614 0.573641 1.029497
  C 2.769852 1.095430 2.256387
  C 3.741553 1.681918 3.278291
  C 3.045512 -1.612374 -0.130335
  C 4.194007 -1.792088 -0.808105
  C 4.696187 -0.564215 -1.396551
  C 4.038984 0.033363 -2.575890
  H 3.023800 -0.324164 -2.705538
  O 5.889795 -0.104937 -1.147858
  H 1.002918 1.052732 0.333747
  H 0.656303 -0.578134 -0.302485
  H 1.401096 0.635156 -1.318218
  H 3.972045 1.452469 0.526551
  H 4.367423 -0.041551 1.395885
  H 2.213740 0.273662 2.715014
  H 2.063296 1.869168 1.961898
  H 4.445138 0.929283 3.627576
  H 3.194375 2.056073 4.143035
  H 4.303871 2.508734 2.850247
  H 2.411809 -2.407090 0.233963
  H 4.708663 -2.729401 -0.959211
  H 4.624803 -0.260663 -3.448718
  H 4.073269 1.123152 -2.542689
  H 6.391465 -0.579444 -0.458401
 26
 34.859551
  C 1.743086 0.399431 -0.501126
  C 3.022809 -0.157662 0.013353
  C 3.753359 0.601600 1.082125
  C 2.827867 1.034195 2.243041
  C 3.674766 1.544173 3.403954
  C 3.138393 -1.642233 0.077947
  C 4.068184 -1.855619 -0.841582
  C 4.335778 -0.469322 -1.342939
  C 3.807758 -0.104540 -2.692337
  H 2.864300 -0.591564 -2.904762
  O 5.486500 0.137557 -1.083148
  H 1.448918 1.275800 0.070678
  H 0.961496 -0.357975 -0.457294
  H 1.802288 0.734758 -1.534568
  H 4.225464 1.497378 0.675584
  H 4.522944 -0.039867 1.514854
  H 2.229837 0.183576 2.572854
  H 2.156882 1.827616 1.919079
  H 4.335149 0.767131 3.785526
  H 3.025461 1.859845 4.219180
  H 4.280109 2.397025 3.101536
  H 2.579136 -2.313416 0.697720
  H 4.547117 -2.748511 -1.204472
  H 4.549925 -0.445796 -3.417448
  H 3.731057 0.975401 -2.808438
  H 6.009175 -0.262189 -0.367348
 26
 35.023505
  C 1.774141 0.376717 -0.537912
  C 3.057612 -0.162906 -0.006778
  C 3.762159 0.615584 1.069160
  C 2.812373 1.018661 2.219335
  C 3.632073 1.546532 3.390671
  C 3.173537 -1.647235 0.094493
  C 4.108775 -1.853376 -0.821808
  C 4.350557 -0.461952 -1.325580
  C 3.841051 -0.128337 -2.694968
  H 2.908073 -0.630891 -2.914740
  O 5.497527 0.160537 -1.073269
  H 1.471299 1.255286 0.026441
  H 0.999937 -0.385625 -0.489006
  H 1.834911 0.704790 -1.573257
  H 4.216503 1.521785 0.666589
  H 4.540566 -0.006944 1.510699
  H 2.232137 0.151303 2.539783
  H 2.124348 1.796172 1.887610
  H 4.307147 0.785673 3.779301
  H 2.965093 1.842965 4.197607
  H 4.218921 2.415317 3.097745
  H 2.617495 -2.316367 0.726466
  H 4.600025 -2.739403 -1.186949
  H 4.599607 -0.471494 -3.399057
  H 3.751975 0.946670 -2.831368
  H 6.023197 -0.225709 -0.351405
