 25
 0.000000
  H 1.407797 0.152663 0.440559
  C 2.489525 0.145244 0.419687
  C 3.257812 0.612832 1.574690
  C 2.444018 1.092751 2.766575
  H 3.098114 1.416413 3.568851
  C 3.065329 -0.322367 -0.745471
  C 4.447997 -0.416976 -0.984077
  C 5.095168 -0.867372 -2.109350
  C 4.606293 -1.381827 -3.393957
  C 3.120648 -1.503857 -3.699070
  C 2.907377 -2.066065 -5.103173
  H 6.177887 -0.858033 -2.086910
  H 3.923091 1.421273 1.241909
  H 3.919957 -0.199053 1.901084
  H 1.806183 0.295150 3.141575
  H 1.805155 1.926926 2.484204
  H 2.383161 -0.632496 -1.517882
  H 5.088215 -0.091813 -0.173589
  H 5.072465 -2.368547 -3.523933
  H 5.072738 -0.757757 -4.169116
  H 2.642528 -0.524304 -3.646655
  H 2.642334 -2.176436 -2.985117
  H 3.349228 -1.417572 -5.856045
  H 1.844728 -2.151072 -5.315759
  H 3.349143 -3.055021 -5.200391
 25
 0.573955
  H 1.498702 -0.242748 0.676948
  C 2.556056 -0.072848 0.523525
  C 3.257404 0.746860 1.511694
  C 2.398256 1.195976 2.681208
  H 2.975895 1.817201 3.359995
  C 3.098419 -0.526586 -0.658052
  C 4.477812 -0.654715 -0.898984
  C 5.107148 -1.041063 -2.058105
  C 4.607971 -1.422379 -3.378971
  C 3.119692 -1.450437 -3.697690
  C 2.889200 -1.895879 -5.138842
  H 6.188991 -1.069050 -2.004062
  H 3.664600 1.615074 0.975172
  H 4.144355 0.212661 1.877492
  H 2.022803 0.340726 3.237744
  H 1.545236 1.776209 2.337364
  H 2.405239 -0.788421 -1.440309
  H 5.126169 -0.463334 -0.054588
  H 5.043954 -2.406717 -3.606603
  H 5.117090 -0.765514 -4.100427
  H 2.689291 -0.455990 -3.568902
  H 2.606762 -2.151701 -3.036567
  H 3.368220 -1.215360 -5.839596
  H 1.825746 -1.914063 -5.363880
  H 3.284673 -2.895098 -5.307787
 25
 4.137986
  H 1.583360 -0.526193 0.822637
  C 2.594826 -0.214045 0.598361
  C 3.214031 0.809682 1.436791
  C 2.372153 1.273735 2.611918
  H 2.880662 2.068510 3.149865
  C 3.133489 -0.645512 -0.599846
  C 4.504682 -0.804864 -0.845604
  C 5.126108 -1.160130 -2.017034
  C 4.620354 -1.453787 -3.358651
  C 3.133329 -1.403950 -3.675653
  C 2.886628 -1.772540 -5.136491
  H 6.205837 -1.239834 -1.958177
  H 3.422386 1.632683 0.737959
  H 4.203050 0.479871 1.775675
  H 2.190184 0.456031 3.305096
  H 1.411256 1.655226 2.276566
  H 2.429645 -0.805913 -1.400552
  H 5.150906 -0.691700 0.016437
  H 5.012459 -2.444880 -3.630765
  H 5.155551 -0.780713 -4.044187
  H 2.747032 -0.398221 -3.504059
  H 2.591817 -2.113760 -3.047545
  H 3.396847 -1.082337 -5.804374
  H 1.824397 -1.734365 -5.362912
  H 3.239461 -2.778648 -5.350555
 25
 9.637327
  H 1.721822 -0.717276 0.933745
  C 2.634833 -0.224537 0.613958
  C 3.121736 0.927521 1.367102
  C 2.338957 1.270487 2.619572
  H 2.735911 2.174373 3.073359
  C 3.177352 -0.615261 -0.606217
  C 4.532783 -0.862611 -0.833118
  C 5.141166 -1.284022 -1.989507
  C 4.633524 -1.539991 -3.342304
  C 3.160647 -1.361852 -3.679176
  C 2.908044 -1.698053 -5.146309
  H 6.203715 -1.472486 -1.904744
  H 3.082464 1.738480 0.628227
  H 4.191773 0.814127 1.592404
  H 2.404986 0.468369 3.349657
  H 1.288307 1.439589 2.390938
  H 2.474771 -0.670887 -1.424774
  H 5.174151 -0.763789 0.031217
  H 4.938919 -2.566062 -3.604683
  H 5.232551 -0.913679 -4.021646
  H 2.860251 -0.325976 -3.508046
  H 2.551669 -2.027072 -3.065996
  H 3.487130 -1.047962 -5.800377
  H 1.856197 -1.567846 -5.390410
  H 3.178533 -2.727855 -5.362284
 25
 17.317343
  H 1.931628 -0.887409 1.109460
  C 2.721745 -0.281424 0.677142
  C 3.035562 0.998344 1.289484
  C 2.259162 1.330924 2.551524
  H 2.520105 2.326668 2.901776
  C 3.252878 -0.684998 -0.569182
  C 4.578238 -1.009116 -0.804079
  C 5.164713 -1.395075 -1.982287
  C 4.646305 -1.568413 -3.339414
  C 3.181420 -1.309033 -3.658350
  C 2.908454 -1.587190 -5.134194
  H 6.222765 -1.631613 -1.914133
  H 2.845563 1.726339 0.487380
  H 4.119932 1.076807 1.471075
  H 2.489623 0.624689 3.345546
  H 1.188534 1.305827 2.369497
  H 2.546271 -0.669021 -1.379703
  H 5.226104 -0.988469 0.062057
  H 4.905081 -2.590806 -3.641128
  H 5.266273 -0.943740 -3.996407
  H 2.933371 -0.263429 -3.450436
  H 2.544158 -1.962059 -3.065905
  H 3.516683 -0.944401 -5.771884
  H 1.864592 -1.399810 -5.369243
  H 3.129428 -2.620371 -5.380913
 25
 27.796236
  H 2.283372 -1.010766 1.287534
  C 2.878114 -0.287201 0.739374
  C 2.900587 1.092442 1.195411
  C 2.113670 1.361084 2.468063
  H 2.163805 2.415846 2.724390
  C 3.399596 -0.695924 -0.527088
  C 4.666964 -1.167384 -0.771881
  C 5.212651 -1.567087 -1.981483
  C 4.662603 -1.637746 -3.340102
  C 3.220452 -1.237215 -3.626894
  C 2.896472 -1.437949 -5.106171
  H 6.243994 -1.892260 -1.930614
  H 2.540553 1.722829 0.369768
  H 3.946921 1.408671 1.314789
  H 2.515624 0.792268 3.302476
  H 1.068574 1.093298 2.343328
  H 2.702086 -0.567131 -1.348969
  H 5.322111 -1.250821 0.086826
  H 4.821027 -2.668099 -3.687590
  H 5.331778 -1.047792 -3.982712
  H 3.067910 -0.184447 -3.384142
  H 2.538336 -1.854124 -3.040374
  H 3.547039 -0.831810 -5.733571
  H 1.868218 -1.151873 -5.312535
  H 3.019033 -2.479579 -5.393340
 25
 16.588992
  H 2.756525 -0.983312 1.449647
  C 3.068479 -0.210149 0.757951
  C 2.753724 1.172920 1.099410
  C 1.998046 1.330826 2.411021
  H 1.795563 2.383941 2.605081
  C 3.502607 -0.634322 -0.509277
  C 4.704733 -1.284727 -0.754330
  C 5.200725 -1.720700 -1.961578
  C 4.653824 -1.707987 -3.323112
  C 3.262094 -1.155323 -3.612131
  C 2.930283 -1.298886 -5.097084
  H 6.193968 -2.151472 -1.919281
  H 2.189622 1.635590 0.277363
  H 3.690768 1.745821 1.126377
  H 2.576209 0.942152 3.242718
  H 1.048948 0.805159 2.377942
  H 2.830485 -0.434847 -1.336182
  H 5.321815 -1.483092 0.111988
  H 4.706441 -2.746196 -3.683792
  H 5.384447 -1.183130 -3.953425
  H 3.218195 -0.096556 -3.354883
  H 2.515911 -1.704266 -3.040305
  H 3.643903 -0.754306 -5.710179
  H 1.936755 -0.904217 -5.305627
  H 2.946844 -2.340229 -5.399701
 25
 6.895246
  H 3.150697 -0.886589 1.554879
  C 3.140670 -0.153020 0.753350
  C 2.547966 1.152633 1.027280
  C 1.989803 1.302160 2.434833
  H 1.572403 2.298177 2.572470
  C 3.503997 -0.596827 -0.510263
  C 4.660642 -1.350131 -0.741768
  C 5.155701 -1.797793 -1.943231
  C 4.637664 -1.741746 -3.313579
  C 3.314338 -1.060840 -3.636228
  C 2.996972 -1.193957 -5.124983
  H 6.125829 -2.275483 -1.890186
  H 1.778622 1.370496 0.274016
  H 3.309305 1.921080 0.847763
  H 2.765071 1.157205 3.181600
  H 1.202609 0.577809 2.616062
  H 2.883435 -0.311703 -1.348290
  H 5.252058 -1.586020 0.133707
  H 4.597280 -2.780440 -3.667561
  H 5.431550 -1.298478 -3.933598
  H 3.371026 0.001305 -3.393198
  H 2.504800 -1.524372 -3.067357
  H 3.773388 -0.731225 -5.733884
  H 2.057835 -0.709540 -5.356496
  H 2.914145 -2.240066 -5.413597
 25
 6.709537
  H 3.450701 -0.785037 1.613640
  C 3.373997 -0.071441 0.805034
  C 2.615023 1.163441 0.997295
  C 1.825451 1.233220 2.298422
  H 1.288130 2.184051 2.358728
  C 3.630512 -0.555861 -0.464529
  C 4.760922 -1.332804 -0.754436
  C 5.170241 -1.823185 -1.974130
  C 4.595941 -1.738751 -3.316380
  C 3.272838 -1.037297 -3.576455
  C 2.895394 -1.135455 -5.051595
  H 6.105129 -2.366093 -1.962443
  H 1.977652 1.285438 0.115008
  H 3.312428 2.010330 0.965956
  H 2.475484 1.161327 3.158582
  H 1.100826 0.422175 2.350446
  H 3.016535 -0.179379 -1.273574
  H 5.389971 -1.566126 0.089998
  H 4.531134 -2.771486 -3.689834
  H 5.375721 -1.296855 -3.963656
  H 3.351052 0.021012 -3.315707
  H 2.480492 -1.497570 -2.984012
  H 3.652932 -0.675213 -5.678701
  H 1.949278 -0.626115 -5.237144
  H 2.782643 -2.173142 -5.357812
