 20
 0.000000
  C 0.986474 0.132610 0.380167
  C 2.457367 0.141061 0.402131
  C 3.220279 0.612839 1.576940
  C 2.419142 1.095392 2.777603
  H 3.098761 1.411222 3.564104
  C 3.106786 -0.317655 -0.739819
  C 4.490020 -0.386743 -0.912282
  C 5.119630 -0.843393 -2.050421
  H 4.620502 -1.201892 -2.942382
  O 6.412952 -0.894999 -2.181219
  H 0.542160 0.500852 1.296522
  H 0.624528 -0.879702 0.193631
  H 0.625015 0.734876 -0.454819
  H 3.882074 1.423560 1.251713
  H 3.882109 -0.197479 1.903012
  H 1.786586 0.305420 3.175990
  H 1.786942 1.941672 2.518669
  H 2.480068 -0.646390 -1.557979
  H 5.127180 -0.060641 -0.100372
  H 6.917380 -0.581699 -1.403375
 20
 8.585951
  C 1.069346 0.102741 0.307002
  C 2.534461 0.150474 0.424446
  C 3.206665 0.641634 1.645961
  C 2.319906 1.101502 2.792890
  H 2.942828 1.433733 3.619099
  C 3.290791 -0.291999 -0.678024
  C 4.662081 -0.322338 -0.750703
  C 4.968714 -0.805294 -1.956733
  H 4.250986 -1.109898 -2.718401
  O 6.202926 -0.994940 -2.428554
  H 0.553548 0.457439 1.189861
  H 0.750076 -0.916502 0.091642
  H 0.749383 0.688976 -0.553839
  H 3.868007 1.465136 1.361260
  H 3.869551 -0.148851 2.009566
  H 1.690076 0.294347 3.157275
  H 1.688895 1.935702 2.498240
  H 2.707141 -0.629798 -1.521629
  H 5.354352 -0.020823 0.006360
  H 6.909033 -0.742718 -1.799167
 20
 36.212881
  C 1.127872 0.083271 0.259374
  C 2.581994 0.148460 0.419395
  C 3.209156 0.647981 1.660931
  C 2.285368 1.095595 2.777438
  H 2.877261 1.435665 3.622662
  C 3.384609 -0.286432 -0.664651
  C 4.758414 -0.281253 -0.645626
  C 4.842648 -0.766355 -1.861235
  H 4.102209 -1.048593 -2.571516
  O 6.038410 -1.027044 -2.510641
  H 0.586618 0.431957 1.126935
  H 0.824829 -0.942879 0.036112
  H 0.823558 0.668002 -0.612390
  H 3.876703 1.482142 1.391343
  H 3.878433 -0.139272 2.043104
  H 1.653556 0.278954 3.121976
  H 1.651880 1.922568 2.461798
  H 2.777144 -0.614217 -1.484887
  H 5.480972 0.012497 0.096104
  H 6.834659 -0.813813 -1.972808
 20
 74.116937
  C 1.146303 0.075673 0.240167
  C 2.610579 0.144600 0.411163
  C 3.217949 0.645152 1.655125
  C 2.275190 1.092692 2.768819
  H 2.857612 1.435524 3.621168
  C 3.429742 -0.290817 -0.673839
  C 4.817418 -0.257543 -0.582081
  C 4.749638 -0.736151 -1.785595
  H 4.064656 -1.041090 -2.552118
  O 6.006013 -1.038563 -2.541930
  H 0.595060 0.424490 1.107033
  H 0.845469 -0.947710 0.017714
  H 0.845079 0.659181 -0.629392
  H 3.875833 1.472896 1.399714
  H 3.876671 -0.128337 2.043977
  H 1.644517 0.277698 3.106405
  H 1.644110 1.914304 2.448375
  H 2.772007 -0.605325 -1.458857
  H 5.536306 0.022439 0.125673
  H 6.807130 -0.836388 -2.038823
 20
 109.627231
  C 1.148375 0.071070 0.229571
  C 2.609863 0.141203 0.401419
  C 3.219443 0.644258 1.650489
  C 2.281365 1.090412 2.760910
  H 2.866997 1.433805 3.613528
  C 3.429539 -0.296461 -0.687566
  C 4.844743 -0.245381 -0.539365
  C 4.657246 -0.714203 -1.732109
  H 4.080056 -1.043062 -2.563866
  O 6.019618 -1.045661 -2.570879
  H 0.599643 0.419553 1.095152
  H 0.844705 -0.952667 0.006747
  H 0.843691 0.653197 -0.641105
  H 3.882185 1.477846 1.395589
  H 3.883308 -0.132326 2.044404
  H 1.648778 0.272415 3.100667
  H 1.647759 1.915075 2.439633
  H 2.736480 -0.600890 -1.444424
  H 5.577746 0.032463 0.170120
  H 6.816102 -0.845460 -2.065108
 20
 136.388662
  C 1.126562 0.074134 0.241614
  C 2.594510 0.135898 0.400024
  C 3.215999 0.644331 1.643758
  C 2.284758 1.105835 2.749587
  H 2.872074 1.449396 3.592658
  C 3.388529 -0.319855 -0.675545
  C 4.854736 -0.299547 -0.490801
  C 4.571781 -0.733273 -1.665629
  H 4.142521 -1.077357 -2.574804
  O 6.145249 -0.997789 -2.666168
  H 0.596769 0.442620 1.106744
  H 0.802258 -0.946384 0.035483
  H 0.818227 0.653296 -0.627311
  H 3.886344 1.469534 1.378357
  H 3.873304 -0.134257 2.046224
  H 1.648776 0.299379 3.098675
  H 1.659451 1.930544 2.424444
  H 2.668138 -0.644387 -1.428438
  H 5.587089 -0.025709 0.219351
  H 6.929173 -0.760680 -2.166527
 20
 143.826420
  C 1.090455 0.075267 0.265770
  C 2.566172 0.121107 0.408083
  C 3.206143 0.615538 1.653942
  C 2.281914 1.112046 2.757668
  H 2.871577 1.484815 3.584562
  C 3.327636 -0.316183 -0.663296
  C 4.844058 -0.318904 -0.482365
  C 4.535117 -0.701716 -1.649863
  H 4.139426 -1.052454 -2.570066
  O 6.360521 -1.019576 -2.781333
  H 0.579151 0.438570 1.145037
  H 0.754483 -0.937666 0.063148
  H 0.775432 0.665737 -0.590364
  H 3.863285 1.452658 1.368792
  H 3.876201 -0.154846 2.061429
  H 1.624574 0.327161 3.120499
  H 1.663295 1.935909 2.405417
  H 2.620353 -0.640852 -1.428266
  H 5.561937 -0.046117 0.249480
  H 7.152038 -0.781443 -2.298503
 20
 144.977161
  C 1.038724 0.110025 0.281262
  C 2.520192 0.115129 0.397861
  C 3.194752 0.621261 1.631788
  C 2.296153 1.148459 2.746133
  H 2.911048 1.484151 3.568384
  C 3.234654 -0.372786 -0.665393
  C 4.844164 -0.475040 -0.426950
  C 4.445573 -0.747455 -1.579399
  H 4.271195 -1.158262 -2.547476
  O 6.561956 -0.868546 -2.898867
  H 0.562403 0.516927 1.161932
  H 0.662414 -0.903423 0.130015
  H 0.721061 0.696523 -0.585821
  H 3.883937 1.425044 1.334078
  H 3.819357 -0.174999 2.045866
  H 1.635198 0.379183 3.126880
  H 1.696085 1.995539 2.414132
  H 2.527177 -0.707212 -1.432881
  H 5.516952 -0.240378 0.358402
  H 7.357275 -0.581461 -2.448842
 20
 147.664153
  C 1.013208 0.122698 0.286680
  C 2.495767 0.106980 0.401370
  C 3.181799 0.608498 1.630648
  C 2.296677 1.159569 2.744318
  H 2.925363 1.485076 3.568342
  C 3.198318 -0.385814 -0.663344
  C 4.846707 -0.506814 -0.394779
  C 4.391010 -0.733765 -1.544875
  H 4.255408 -1.189288 -2.502469
  O 6.709318 -0.826382 -2.985977
  H 0.543789 0.539712 1.166327
  H 0.622740 -0.885752 0.139889
  H 0.703683 0.710628 -0.580759
  H 3.881581 1.395167 1.327659
  H 3.788471 -0.197066 2.050032
  H 1.626293 0.400261 3.135433
  H 1.712155 2.015855 2.412913
  H 2.495906 -0.730296 -1.431621
  H 5.510566 -0.298140 0.409250
  H 7.509371 -0.528919 -2.551602
 20
 147.910824
  C 0.970818 0.142344 0.313697
  C 2.457558 0.087587 0.402303
  C 3.172649 0.580049 1.610693
  C 2.322026 1.174586 2.725091
  H 2.970419 1.495817 3.534804
  C 3.123331 -0.425825 -0.671842
  C 4.828550 -0.575190 -0.362700
  C 4.329169 -0.749511 -1.508209
  H 4.275781 -1.213204 -2.466841
  O 6.900387 -0.723388 -3.037343
  H 0.527787 0.581310 1.197525
  H 0.552124 -0.855932 0.181770
  H 0.662032 0.727988 -0.553965
  H 3.893741 1.338879 1.286176
  H 3.760931 -0.240897 2.036807
  H 1.629532 0.444816 3.134684
  H 1.762192 2.042609 2.384608
  H 2.409981 -0.772803 -1.436533
  H 5.456629 -0.399472 0.470002
  H 7.697238 -0.406266 -2.603897
 20
 146.251952
  C 0.919461 0.156106 0.348109
  C 2.403717 0.064579 0.400268
  C 3.153504 0.554773 1.583805
  C 2.355523 1.197617 2.708356
  H 3.035369 1.515189 3.494373
  C 3.013816 -0.481709 -0.689429
  C 4.797104 -0.666664 -0.348719
  C 4.263744 -0.790313 -1.474559
  H 4.251562 -1.179004 -2.465821
  O 7.170507 -0.591894 -3.060229
  H 0.512340 0.615565 1.239718
  H 0.475555 -0.835792 0.252149
  H 0.598447 0.736203 -0.517871
  H 3.909748 1.270004 1.225591
  H 3.724712 -0.279073 2.007764
  H 1.639318 0.501142 3.143354
  H 1.819591 2.084163 2.363412
  H 2.278195 -0.815672 -1.431299
  H 5.390926 -0.529345 0.514000
  H 7.970375 -0.283270 -2.627235
 20
 133.152883
  C 0.906156 0.080354 0.447749
  C 2.374996 -0.026403 0.415366
  C 3.207752 0.522041 1.511732
  C 2.498173 1.380895 2.552488
  H 3.225277 1.737016 3.277149
  C 2.912710 -0.622657 -0.704915
  C 4.570063 -1.149291 -0.369421
  C 4.229039 -0.667454 -1.491215
  H 4.317334 -0.636264 -2.560014
  O 7.172930 -0.124003 -2.769566
  H 0.543467 0.600286 1.323808
  H 0.450166 -0.911023 0.412851
  H 0.551192 0.599125 -0.445336
  H 4.020966 1.100081 1.059276
  H 3.689152 -0.303802 2.049926
  H 1.738357 0.820918 3.092641
  H 2.029432 2.252468 2.096467
  H 2.216144 -1.052187 -1.421825
  H 4.987338 -1.393836 0.579514
  H 8.042869 0.036340 -2.390939
