 17
 0.000000
  H 1.477263 0.159359 0.445445
  C 2.558380 0.154670 0.435806
  C 3.257015 0.633686 1.629094
  C 2.341012 1.086999 2.755523
  H 2.923686 1.427942 3.605907
  C 3.168486 -0.307217 -0.712765
  C 4.549950 -0.389312 -0.916072
  C 5.116984 -0.857564 -2.083854
  H 4.539817 -1.200065 -2.935851
  O 6.389677 -0.942455 -2.299837
  H 3.922854 1.459684 1.348487
  H 3.921449 -0.157786 1.998376
  H 1.699663 0.272613 3.084605
  H 1.701272 1.903858 2.429450
  H 2.523187 -0.630271 -1.518652
  H 5.201401 -0.068504 -0.115639
  H 6.954887 -0.641869 -1.557236
 17
 1.778737
  H 1.517604 0.212112 0.443323
  C 2.596729 0.178190 0.421550
  C 3.280061 0.635690 1.637536
  C 2.324797 1.068620 2.740886
  H 2.877641 1.381566 3.623195
  C 3.188915 -0.287554 -0.735151
  C 4.574144 -0.393353 -0.903473
  C 5.131771 -0.904051 -2.056113
  H 4.489003 -1.336205 -2.815614
  O 6.386268 -0.945784 -2.351100
  H 3.956637 1.465874 1.396649
  H 3.915996 -0.174916 2.018008
  H 1.667000 0.251685 3.028047
  H 1.705618 1.900232 2.414552
  H 2.517952 -0.571292 -1.528936
  H 5.112950 -0.011740 -0.051865
  H 6.987731 -0.560143 -1.676221
 17
 7.754212
  H 1.528890 0.264859 0.415655
  C 2.613909 0.212538 0.409131
  C 3.278320 0.636936 1.635698
  C 2.315681 1.046601 2.747174
  H 2.864560 1.345228 3.635253
  C 3.216065 -0.252443 -0.756386
  C 4.607180 -0.419669 -0.919319
  C 5.144245 -0.974126 -2.033145
  H 4.496439 -1.485601 -2.732115
  O 6.384645 -0.948717 -2.353654
  H 3.953427 1.479561 1.425260
  H 3.921675 -0.172865 2.008254
  H 1.663204 0.221886 3.020610
  H 1.701072 1.885741 2.434050
  H 2.509687 -0.479606 -1.546660
  H 5.014239 0.023167 -0.008362
  H 6.981874 -0.465475 -1.753991
 17
 9.145179
  H 1.520658 0.325448 0.391535
  C 2.601961 0.278804 0.380202
  C 3.281054 0.664884 1.617230
  C 2.327887 0.996928 2.756897
  H 2.879563 1.221825 3.664881
  C 3.188897 -0.168196 -0.786712
  C 4.578236 -0.361366 -0.918719
  C 5.148199 -1.038814 -1.967551
  H 4.532393 -1.690359 -2.580540
  O 6.389064 -1.002216 -2.324556
  H 3.948727 1.516176 1.447081
  H 3.934840 -0.160738 1.939941
  H 1.661834 0.161320 2.959892
  H 1.707442 1.854408 2.506191
  H 2.488848 -0.417682 -1.573284
  H 4.987807 0.172714 -0.076200
  H 6.966267 -0.424666 -1.782305
 17
 9.365130
  H 1.498965 0.380690 0.380047
  C 2.574322 0.303795 0.373225
  C 3.262298 0.640432 1.620877
  C 2.332061 0.974916 2.766093
  H 2.897190 1.171269 3.679245
  C 3.155262 -0.101549 -0.812134
  C 4.539980 -0.327126 -0.944236
  C 5.159830 -1.090015 -1.900476
  H 4.605411 -1.893912 -2.385122
  O 6.398334 -1.025521 -2.253509
  H 4.003725 1.431277 1.469883
  H 3.868700 -0.247801 1.914647
  H 1.643539 0.159564 2.949706
  H 1.731216 1.854245 2.530999
  H 2.467449 -0.326762 -1.608895
  H 5.031654 0.313946 -0.213285
  H 6.904366 -0.276150 -1.881001
 17
 13.116520
  H 1.489820 0.423185 0.378191
  C 2.562515 0.312494 0.395510
  C 3.251738 0.597878 1.634778
  C 2.328815 0.979246 2.777460
  H 2.897042 1.147844 3.695172
  C 3.131281 -0.105767 -0.803348
  C 4.531259 -0.350125 -0.961505
  C 5.193075 -1.117707 -1.872434
  H 4.678794 -1.970336 -2.295324
  O 6.403967 -0.974435 -2.286432
  H 4.036650 1.331919 1.503206
  H 3.823562 -0.314335 1.940093
  H 1.592468 0.202204 2.951018
  H 1.775950 1.880556 2.536038
  H 2.430691 -0.307918 -1.603227
  H 4.994604 0.394548 -0.294049
  H 6.864255 -0.173099 -1.970615
 17
 15.936994
  H 1.467150 0.430822 0.373869
  C 2.539682 0.291657 0.378072
  C 3.256708 0.584586 1.613353
  C 2.345897 0.936492 2.780969
  H 2.937132 1.112901 3.676289
  C 3.103587 -0.041527 -0.835851
  C 4.490024 -0.326057 -0.977956
  C 5.175478 -1.141658 -1.810065
  H 4.697037 -2.047970 -2.167231
  O 6.400362 -1.010461 -2.192888
  H 3.989755 1.385869 1.440604
  H 3.862587 -0.288133 1.892199
  H 1.662654 0.119536 2.995997
  H 1.768399 1.832363 2.572533
  H 2.405977 -0.157055 -1.657380
  H 4.945925 0.460115 -0.364749
  H 6.830969 -0.163766 -1.952604
 17
 20.944852
  H 1.469127 0.534547 0.351063
  C 2.524969 0.312214 0.408230
  C 3.231422 0.539466 1.662608
  C 2.328015 0.936892 2.817708
  H 2.909077 1.093844 3.721667
  C 3.107762 -0.035889 -0.799418
  C 4.488744 -0.370615 -0.988339
  C 5.206105 -1.201292 -1.766655
  H 4.825747 -2.174108 -2.030311
  O 6.386358 -0.954012 -2.252073
  H 3.990363 1.309728 1.469912
  H 3.804739 -0.362735 1.918062
  H 1.594142 0.159232 3.019960
  H 1.782810 1.848480 2.578832
  H 2.435305 -0.113008 -1.642422
  H 4.934505 0.539845 -0.567394
  H 6.735245 -0.058936 -2.083687
 17
 26.870479
  H 1.449458 0.596350 0.340723
  C 2.507344 0.381446 0.370761
  C 3.222012 0.535130 1.634392
  C 2.353549 0.874781 2.830959
  H 2.968794 1.001527 3.712127
  C 3.059830 0.029361 -0.843707
  C 4.412820 -0.361477 -1.007745
  C 5.203594 -1.219580 -1.672995
  H 4.924191 -2.264266 -1.752809
  O 6.393249 -0.967247 -2.137329
  H 3.982521 1.310116 1.475169
  H 3.809428 -0.367730 1.836304
  H 1.639137 0.085400 3.028244
  H 1.812515 1.807440 2.665336
  H 2.401820 -0.037621 -1.696650
  H 4.809440 0.668223 -0.772843
  H 6.670490 -0.032958 -2.122533
 17
 37.540300
  H 1.470778 0.749496 0.360612
  C 2.521269 0.474140 0.352630
  C 3.231594 0.519209 1.637150
  C 2.344602 0.823843 2.836076
  H 2.942020 0.893675 3.742871
  C 3.069860 0.106194 -0.833492
  C 4.399251 -0.358151 -1.030979
  C 5.249796 -1.222237 -1.555061
  H 5.071032 -2.285620 -1.425591
  O 6.380223 -0.974184 -2.164229
  H 3.999852 1.292593 1.557887
  H 3.795026 -0.408140 1.800550
  H 1.602701 0.047329 2.986201
  H 1.824579 1.771826 2.696173
  H 2.386400 -0.067710 -1.658164
  H 4.636489 0.754627 -0.977025
  H 6.554106 -0.034248 -2.353217
 17
 45.636023
  H 1.424486 0.697246 0.400434
  C 2.481558 0.464374 0.356303
  C 3.244815 0.502997 1.601036
  C 2.405269 0.830176 2.830659
  H 3.014640 0.787852 3.729187
  C 3.014415 0.114405 -0.860296
  C 4.329368 -0.370395 -1.061711
  C 5.268936 -1.191876 -1.482235
  H 5.142859 -2.254926 -1.278652
  O 6.433270 -0.932603 -2.048321
  H 4.043387 1.253753 1.520549
  H 3.773474 -0.446344 1.740080
  H 1.608469 0.093214 2.950939
  H 1.947901 1.811866 2.754684
  H 2.278045 0.019884 -1.660003
  H 4.352990 0.753452 -1.182039
  H 6.578150 0.005676 -2.251882
 17
 54.705475
  H 1.406457 0.603073 0.423629
  C 2.473634 0.442525 0.369535
  C 3.274580 0.580436 1.588934
  C 2.432673 0.805752 2.838641
  H 3.070835 0.906463 3.711752
  C 3.027271 0.178097 -0.905464
  C 4.236559 -0.498509 -1.153829
  C 5.230189 -1.254663 -1.520338
  H 5.083907 -2.334546 -1.443255
  O 6.454481 -0.961026 -1.941603
  H 3.992915 1.404395 1.488948
  H 3.888000 -0.320741 1.719537
  H 1.758828 -0.031318 3.011120
  H 1.837487 1.713120 2.741749
  H 2.306872 0.193628 -1.722018
  H 4.122613 0.789905 -1.027227
  H 6.620754 -0.007944 -2.044219
 17
 59.609111
  H 1.440092 0.652488 0.421710
  C 2.502235 0.480864 0.369149
  C 3.286493 0.580774 1.604737
  C 2.409088 0.797491 2.840091
  H 3.028919 0.853004 3.729583
  C 3.057653 0.238022 -0.925084
  C 4.239542 -0.490778 -1.185130
  C 5.231434 -1.254119 -1.528315
  H 5.077102 -2.330403 -1.403967
  O 6.466075 -0.992400 -1.955927
  H 4.018134 1.394739 1.551666
  H 3.878788 -0.334551 1.735724
  H 1.716206 -0.030544 2.951145
  H 1.848313 1.720594 2.747487
  H 2.319672 0.141468 -1.717480
  H 3.972479 0.957359 -0.938170
  H 6.627086 -0.050678 -2.124350
