 23
 0.000000
  C 0.976371 0.151554 0.429656
  C 2.450501 0.134934 0.387729
  C 3.231148 0.602064 1.548934
  H 2.624872 0.936461 2.381003
  C 3.052630 -0.332275 -0.774634
  C 4.429542 -0.415029 -0.981494
  C 5.118390 -0.864665 -2.103241
  C 4.629944 -1.387687 -3.408171
  C 3.142131 -1.505359 -3.702305
  H 3.006850 -1.905460 -4.700700
  O 6.438969 -0.856045 -2.082146
  H 0.585695 0.529413 1.369280
  H 0.585529 -0.854372 0.270360
  H 0.585176 0.766976 -0.381692
  H 3.883968 1.422548 1.244291
  H 3.884381 -0.200595 1.897018
  H 2.389273 -0.648368 -1.560790
  H 5.050862 -0.084040 -0.157496
  H 5.093437 -2.373143 -3.530767
  H 5.093749 -0.759938 -4.177507
  H 2.658690 -0.532418 -3.663348
  H 2.658478 -2.182035 -3.002269
  H 6.821109 -0.522815 -1.248604
 23
 14.355945
  C 0.950282 0.166967 0.467376
  C 2.422970 0.148485 0.421571
  C 3.200976 0.615530 1.583125
  H 2.581442 0.947246 2.408504
  C 3.025079 -0.319890 -0.743663
  C 4.393953 -0.399630 -0.942896
  C 5.130645 -0.892989 -2.174038
  C 4.646482 -1.407809 -3.458369
  C 3.155398 -1.518178 -3.733679
  H 3.009981 -1.918385 -4.732294
  O 6.585093 -0.877766 -2.137276
  H 0.565313 0.545682 1.409091
  H 0.556983 -0.837960 0.307526
  H 0.556977 0.781548 -0.343647
  H 3.853095 1.438539 1.285805
  H 3.853259 -0.184109 1.938186
  H 2.362155 -0.636600 -1.531667
  H 5.026213 -0.073152 -0.129950
  H 5.109536 -2.394426 -3.584189
  H 5.109624 -0.781353 -4.230886
  H 2.675885 -0.544042 -3.691022
  H 2.675933 -2.193306 -3.030087
  H 6.944292 -0.543070 -1.300415
 23
 44.467555
  C 0.945669 0.174881 0.484781
  C 2.415162 0.156142 0.440801
  C 3.186623 0.622049 1.601085
  H 2.546541 0.950120 2.417101
  C 3.015274 -0.308313 -0.714329
  C 4.362482 -0.377639 -0.886987
  C 5.103066 -0.915121 -2.229556
  C 4.643104 -1.424169 -3.499464
  C 3.151922 -1.531122 -3.764012
  H 3.004747 -1.932483 -4.765432
  O 6.707613 -0.875828 -2.135508
  H 0.569233 0.554794 1.429488
  H 0.548593 -0.829381 0.329752
  H 0.549599 0.792996 -0.322282
  H 3.840576 1.445605 1.314519
  H 3.839398 -0.171588 1.964495
  H 2.357943 -0.626367 -1.506825
  H 5.033337 -0.065994 -0.110739
  H 5.116630 -2.404333 -3.637195
  H 5.115896 -0.810052 -4.276180
  H 2.674487 -0.557150 -3.721649
  H 2.675573 -2.207004 -3.060697
  H 6.974474 -0.534147 -1.282638
 23
 79.194685
  C 0.931877 0.175432 0.487888
  C 2.396444 0.163547 0.459250
  C 3.158714 0.631895 1.624680
  H 2.511486 0.953559 2.424831
  C 3.013343 -0.302492 -0.700142
  C 4.358694 -0.363679 -0.852864
  C 5.075438 -0.938006 -2.286037
  C 4.639394 -1.436588 -3.529930
  C 3.129316 -1.530793 -3.764790
  H 2.959040 -1.927674 -4.754776
  O 6.861194 -0.887765 -2.163253
  H 0.541378 0.552534 1.425759
  H 0.542292 -0.830694 0.321258
  H 0.542595 0.786498 -0.328759
  H 3.813319 1.460961 1.346584
  H 3.812916 -0.159090 1.997950
  H 2.369992 -0.621583 -1.494318
  H 5.079306 -0.066417 -0.113271
  H 5.116974 -2.426971 -3.667697
  H 5.117096 -0.815869 -4.313807
  H 2.662450 -0.551016 -3.710539
  H 2.662448 -2.201876 -3.048855
  H 7.057817 -0.534226 -1.280857
 23
 100.209798
  C 0.921905 0.322748 0.502145
  C 2.374666 0.145357 0.447861
  C 3.205295 0.506685 1.602384
  H 2.616625 0.887214 2.425878
  C 2.918930 -0.354712 -0.730714
  C 4.301081 -0.478922 -0.953037
  C 4.817463 -0.911176 -2.170986
  C 4.574829 -1.412078 -3.449755
  C 3.096736 -1.656837 -3.807291
  H 3.057487 -2.046795 -4.814624
  O 7.160939 -0.640149 -2.063003
  H 0.590343 0.722438 1.453402
  H 0.415000 -0.628217 0.319310
  H 0.590549 0.988764 -0.298152
  H 3.948856 1.255334 1.318855
  H 3.780148 -0.358434 1.942401
  H 2.236319 -0.610692 -1.519851
  H 5.048122 -0.200921 -0.219276
  H 5.155368 -2.351308 -3.564852
  H 5.040170 -0.726032 -4.187862
  H 2.533089 -0.729699 -3.775848
  H 2.650120 -2.385589 -3.136239
  H 7.278499 -0.200959 -1.226642
 23
 108.272188
  C 0.881038 0.404340 0.660999
  C 2.330882 0.174665 0.493404
  C 3.254895 0.489345 1.598430
  H 2.730573 0.876923 2.468892
  C 2.757493 -0.316938 -0.705434
  C 4.134779 -0.508282 -1.031365
  C 4.584514 -0.930286 -2.195479
  C 4.619333 -1.428999 -3.481115
  C 3.189199 -1.756908 -3.984672
  H 3.292625 -2.163489 -4.984800
  O 7.252757 -0.596030 -1.998984
  H 0.641234 0.801070 1.644132
  H 0.325296 -0.521164 0.503184
  H 0.518291 1.096997 -0.099327
  H 4.003487 1.219310 1.282693
  H 3.813936 -0.401444 1.892724
  H 2.027838 -0.533876 -1.471944
  H 4.862934 -0.237735 -0.275637
  H 5.233464 -2.330024 -3.516599
  H 5.113297 -0.733604 -4.158629
  H 2.588059 -0.865437 -4.023927
  H 2.717093 -2.491787 -3.351670
  H 7.410786 -0.121898 -1.179166
 23
 109.282909
  C 0.835737 0.404201 0.775411
  C 2.282081 0.194645 0.509403
  C 3.273792 0.515398 1.563732
  H 2.801167 0.885609 2.459959
  C 2.644565 -0.290852 -0.717517
  C 4.012552 -0.502364 -1.118333
  C 4.459797 -0.933743 -2.233714
  C 4.655561 -1.441605 -3.510912
  C 3.233978 -1.771271 -4.056799
  H 3.371607 -2.193190 -5.042743
  O 7.423765 -0.619214 -1.918557
  H 0.653956 0.793091 1.770961
  H 0.284377 -0.526745 0.648676
  H 0.413592 1.093675 0.044059
  H 3.982533 1.266872 1.214741
  H 3.852652 -0.371043 1.826418
  H 1.889796 -0.521207 -1.444481
  H 4.753456 -0.238024 -0.360539
  H 5.259279 -2.357053 -3.491010
  H 5.202038 -0.754120 -4.161325
  H 2.631863 -0.866795 -4.140660
  H 2.728166 -2.494250 -3.422175
  H 7.673326 -0.164673 -1.118241
 23
 108.877745
  C 0.800501 0.394637 0.886273
  C 2.235450 0.195652 0.538420
  C 3.287973 0.534960 1.533984
  H 2.862556 0.913445 2.460269
  C 2.535357 -0.294619 -0.701204
  C 3.883013 -0.508750 -1.172047
  C 4.350727 -0.943339 -2.278863
  C 4.701529 -1.463471 -3.540227
  C 3.286364 -1.829403 -4.112257
  H 3.470709 -2.273531 -5.111951
  O 7.568771 -0.505561 -1.883666
  H 0.676744 0.790395 1.897804
  H 0.251322 -0.552040 0.799201
  H 0.323688 1.082645 0.174270
  H 3.963896 1.296117 1.138066
  H 3.892788 -0.347988 1.770921
  H 1.742995 -0.525601 -1.401834
  H 4.659437 -0.230403 -0.440785
  H 5.333411 -2.379716 -3.472187
  H 5.230093 -0.740049 -4.201813
  H 2.649292 -0.922118 -4.229850
  H 2.772271 -2.570582 -3.457914
  H 7.906802 -0.035856 -1.120908
 23
 111.111000
  C 0.770818 0.414339 0.929333
  C 2.206007 0.211869 0.584493
  C 3.257146 0.546295 1.583165
  H 2.830632 0.924283 2.509149
  C 2.507430 -0.276960 -0.655333
  C 3.855573 -0.494096 -1.123397
  C 4.372436 -0.972175 -2.342644
  C 4.724720 -1.490970 -3.604145
  C 3.309864 -1.851763 -4.180190
  H 3.495292 -2.294563 -5.180273
  O 7.718835 -0.527380 -1.922990
  H 0.645810 0.808572 1.941305
  H 0.219126 -0.530590 0.839202
  H 0.297668 1.105039 0.217491
  H 3.936188 1.306237 1.190261
  H 3.858859 -0.338829 1.819880
  H 1.716065 -0.504358 -1.358258
  H 4.631065 -0.219344 -0.389790
  H 5.353802 -2.409156 -3.536325
  H 5.256923 -0.767846 -4.263134
  H 2.675683 -0.942431 -4.297593
  H 2.792098 -2.592674 -3.528443
  H 8.056412 -0.060067 -1.158564
 23
 109.194607
  C 0.776612 0.389910 0.961190
  C 2.190271 0.204592 0.548656
  C 3.275481 0.553337 1.491235
  H 2.882321 0.929343 2.427718
  C 2.441780 -0.289333 -0.696390
  C 3.763670 -0.517292 -1.213541
  C 4.225584 -0.965820 -2.319740
  C 4.677939 -1.469276 -3.526137
  C 3.293171 -1.804633 -4.176891
  H 3.519075 -2.233132 -5.158332
  O 7.958143 -0.574849 -1.784706
  H 0.693267 0.780940 1.969089
  H 0.233604 -0.552706 0.895448
  H 0.267195 1.066398 0.274123
  H 3.924707 1.316927 1.067655
  H 3.890389 -0.318872 1.712577
  H 1.624867 -0.531647 -1.352333
  H 4.586440 -0.256980 -0.537157
  H 5.277597 -2.376933 -3.424583
  H 5.222038 -0.742693 -4.136209
  H 2.697150 -0.908568 -4.315135
  H 2.741102 -2.536316 -3.586901
  H 8.404259 -0.156917 -1.042308
 23
 107.750780
  C 0.748179 0.325281 0.873302
  C 2.176048 0.178775 0.513547
  C 3.217522 0.588463 1.481719
  H 2.781659 0.976714 2.396715
  C 2.486298 -0.334936 -0.713626
  C 3.820255 -0.525379 -1.185141
  C 4.313047 -0.974491 -2.276700
  C 4.750388 -1.469005 -3.487224
  C 3.276152 -1.683617 -3.996932
  H 3.388586 -2.098653 -4.996337
  O 7.861780 -0.656325 -1.918695
  H 0.617559 0.733585 1.869914
  H 0.241065 -0.638224 0.815749
  H 0.242024 0.973131 0.157031
  H 3.859356 1.360171 1.055272
  H 3.856982 -0.256228 1.740226
  H 1.693627 -0.621854 -1.388087
  H 4.637036 -0.241722 -0.509888
  H 5.297489 -2.410321 -3.433382
  H 5.291190 -0.755808 -4.109422
  H 2.727747 -0.749296 -4.075301
  H 2.730094 -2.399810 -3.389733
  H 8.552578 -0.314971 -1.345676
