19
 0
 C -0.03471034 0.41182806 1.46671552
 C 0.00000000 0.00000000 0.00000000
 C -0.66999153 -1.36128727 -0.17932057
 C -0.60778837 0.99459124 -0.99055353
 C -1.32889617 2.22996667 -0.51532211
 O -0.52979331 0.77789104 -2.20534334
 H 0.48313993 -0.32728524 2.08779054
 H -1.06192294 0.49474707 1.83807122
 H 0.46467504 1.37452877 1.61801500
 H 1.05659816 -0.09025268 -0.28448490
 H -1.73801545 -1.31088582 0.05927030
 H -0.20826446 -2.11342498 0.46921443
 H -0.57947375 -1.71331600 -1.21273022
 H -1.28877474 2.36810760 0.56355023
 H -2.37878921 2.16416368 -0.81307033
 H -0.86689853 3.10513419 -0.98145536
 O 3.30000000 0.00000000 0.00000000
 H 3.98474093 0.23913281 0.64258244
 H 3.78881206 -0.44606170 -0.70784698
