 20
 0.000000
  H 1.426208 0.188750 0.522032
  C 2.493070 0.137659 0.394271
  H 3.120701 0.464435 1.206986
  C 3.023753 -0.330287 -0.770890
  C 4.408310 -0.413446 -0.978884
  C 5.110370 -0.866265 -2.108049
  C 4.607284 -1.384634 -3.400492
  C 3.120762 -1.505691 -3.703489
  C 2.925002 -2.069722 -5.109036
  O 6.415900 -0.853368 -2.076172
  H 2.355788 -0.645132 -1.554446
  H 5.030875 -0.082197 -0.154187
  H 5.074868 -2.369184 -3.530937
  H 5.075694 -0.763844 -4.175233
  H 2.640201 -0.527813 -3.657486
  H 2.639648 -2.180229 -2.994412
  H 3.372288 -1.420278 -5.857633
  H 1.865448 -2.159519 -5.333620
  H 3.371855 -3.056633 -5.200852
  H 6.823163 -0.523208 -1.250764
 20
 6.641084
  H 1.520838 0.233008 0.625595
  C 2.564400 0.151878 0.430572
  H 3.234243 0.458373 1.201551
  C 3.016261 -0.332167 -0.777361
  C 4.347122 -0.445740 -1.054190
  C 5.116110 -0.878443 -2.137925
  C 4.644750 -1.398312 -3.433661
  C 3.151370 -1.512687 -3.720569
  C 2.928812 -2.075573 -5.122394
  O 6.413527 -0.840110 -2.048765
  H 2.265724 -0.616403 -1.495329
  H 4.739483 -0.084811 -0.145916
  H 5.115031 -2.378790 -3.565332
  H 5.115845 -0.781814 -4.206666
  H 2.679781 -0.531915 -3.663144
  H 2.678427 -2.180507 -3.000840
  H 3.368991 -1.429170 -5.877965
  H 1.865293 -2.158433 -5.330900
  H 3.367841 -3.065775 -5.220740
  H 6.782833 -0.492123 -1.186430
 20
 22.480646
  H 1.540647 0.234437 0.632671
  C 2.588786 0.151158 0.430223
  H 3.266185 0.457884 1.201711
  C 3.026516 -0.342244 -0.803066
  C 4.333908 -0.468376 -1.112971
  C 5.144351 -0.886129 -2.158469
  C 4.685023 -1.404910 -3.450143
  C 3.179102 -1.506488 -3.705968
  C 2.915468 -2.067181 -5.101287
  O 6.445402 -0.834598 -2.035944
  H 2.222489 -0.611872 -1.483034
  H 4.518004 -0.088929 -0.161845
  H 5.152455 -2.389887 -3.586360
  H 5.153849 -0.789426 -4.229913
  H 2.719779 -0.521009 -3.633584
  H 2.718164 -2.166879 -2.971855
  H 3.343640 -1.425269 -5.867915
  H 1.846243 -2.139273 -5.283502
  H 3.341993 -3.062008 -5.209937
  H 6.779181 -0.491746 -1.182138
 20
 41.530159
  H 1.562767 0.260956 0.699081
  C 2.611138 0.175172 0.491952
  H 3.294438 0.482831 1.269567
  C 3.035171 -0.323797 -0.759211
  C 4.336598 -0.473622 -1.125589
  C 5.144689 -0.891468 -2.173555
  C 4.687704 -1.414896 -3.475159
  C 3.192037 -1.516860 -3.732128
  C 2.930269 -2.079117 -5.129730
  O 6.440228 -0.838424 -2.048199
  H 2.190548 -0.575758 -1.401483
  H 4.358460 -0.084624 -0.146572
  H 5.153351 -2.400376 -3.607396
  H 5.154897 -0.796822 -4.252999
  H 2.733178 -0.534358 -3.658457
  H 2.731297 -2.173283 -2.998721
  H 3.360059 -1.437089 -5.896115
  H 1.861125 -2.151990 -5.314300
  H 3.358050 -3.074302 -5.237263
  H 6.767667 -0.493858 -1.188520
 20
 61.327677
  H 1.567516 0.249594 0.671664
  C 2.613719 0.170583 0.483753
  H 3.292112 0.486142 1.292358
  C 3.045858 -0.316901 -0.749516
  C 4.351517 -0.478451 -1.139690
  C 5.153503 -0.895467 -2.187438
  C 4.691617 -1.419414 -3.487427
  C 3.207958 -1.514282 -3.725385
  C 2.934748 -2.073010 -5.111343
  O 6.452544 -0.844978 -2.066619
  H 2.186007 -0.559009 -1.376921
  H 4.222946 -0.090114 -0.158022
  H 5.149237 -2.399396 -3.622893
  H 5.150841 -0.807574 -4.264589
  H 2.746582 -0.508577 -3.645249
  H 2.744714 -2.182778 -2.969656
  H 3.359683 -1.433445 -5.880774
  H 1.865629 -2.142394 -5.286002
  H 3.357620 -3.067224 -5.221247
  H 6.781226 -0.502255 -1.206308
 20
 76.741876
  H 1.512343 0.255244 0.640701
  C 2.589069 0.164731 0.501054
  H 3.208203 0.437941 1.321955
  C 3.075433 -0.283436 -0.727272
  C 4.391683 -0.488238 -1.147137
  C 5.188598 -0.890210 -2.179142
  C 4.713396 -1.422590 -3.485911
  C 3.202210 -1.517769 -3.712182
  C 2.904898 -2.076616 -5.101507
  O 6.497510 -0.841382 -2.087777
  H 2.226254 -0.478802 -1.405365
  H 4.152436 -0.109204 -0.141639
  H 5.174484 -2.411614 -3.625939
  H 5.166336 -0.796849 -4.267614
  H 2.751680 -0.531169 -3.629537
  H 2.755894 -2.175365 -2.968652
  H 3.319173 -1.439588 -5.872906
  H 1.835579 -2.143741 -5.261586
  H 3.323779 -3.068579 -5.218513
  H 6.842503 -0.496014 -1.239437
 20
 81.630772
  H 1.458961 0.221088 0.557901
  C 2.516921 0.156185 0.505553
  H 3.053729 0.429775 1.408548
  C 3.111497 -0.253122 -0.677032
  C 4.429355 -0.500750 -1.175970
  C 5.212217 -0.885432 -2.176587
  C 4.703050 -1.426372 -3.491636
  C 3.207490 -1.510233 -3.694343
  C 2.892271 -2.072489 -5.075296
  O 6.540335 -0.863408 -2.157795
  H 2.321981 -0.437713 -1.439573
  H 4.125194 -0.112973 -0.118688
  H 5.152209 -2.415947 -3.605779
  H 5.146786 -0.786032 -4.259895
  H 2.766473 -0.517083 -3.617655
  H 2.767095 -2.165007 -2.944855
  H 3.306244 -1.441455 -5.853846
  H 1.817550 -2.133848 -5.222684
  H 3.306557 -3.067236 -5.190212
  H 6.922772 -0.517685 -1.339232
 20
 87.314159
  H 1.417605 0.225715 0.515836
  C 2.487768 0.138756 0.514296
  H 2.975495 0.355106 1.459489
  C 3.137872 -0.215215 -0.651296
  C 4.448612 -0.502250 -1.194327
  C 5.229356 -0.882177 -2.189057
  C 4.716484 -1.426280 -3.505786
  C 3.202140 -1.507041 -3.690144
  C 2.868319 -2.080135 -5.060090
  O 6.559570 -0.859519 -2.166801
  H 2.398081 -0.357762 -1.460001
  H 4.089998 -0.108200 -0.096947
  H 5.162629 -2.419140 -3.611754
  H 5.156413 -0.792344 -4.280391
  H 2.763283 -0.510258 -3.619930
  H 2.765728 -2.154902 -2.928206
  H 3.275250 -1.455722 -5.850557
  H 1.790363 -2.138050 -5.194750
  H 3.277986 -3.080409 -5.170684
  H 6.941970 -0.513403 -1.338823
 20
 93.428425
  H 1.392435 0.239768 0.489001
  C 2.462983 0.128126 0.526489
  H 2.904009 0.290347 1.494805
  C 3.156423 -0.185974 -0.627372
  C 4.463725 -0.503976 -1.197299
  C 5.236224 -0.881460 -2.199518
  C 4.716933 -1.429653 -3.513691
  C 3.204745 -1.506885 -3.683243
  C 2.855092 -2.088054 -5.051309
  O 6.569249 -0.856699 -2.182173
  H 2.443781 -0.278954 -1.468559
  H 4.052139 -0.104395 -0.057989
  H 5.161228 -2.421652 -3.623051
  H 5.153164 -0.799483 -4.295954
  H 2.768662 -0.509244 -3.615896
  H 2.773720 -2.147089 -2.917039
  H 3.255988 -1.471547 -5.844868
  H 1.768691 -2.144434 -5.178539
  H 3.260534 -3.087911 -5.159500
  H 6.951037 -0.511540 -1.359201
 20
 98.493699
  H 1.382015 0.252631 0.453772
  C 2.440694 0.109364 0.526543
  H 2.852298 0.200649 1.525425
  C 3.168393 -0.156248 -0.623299
  C 4.478768 -0.501801 -1.197961
  C 5.235983 -0.872954 -2.208378
  C 4.705537 -1.427864 -3.515564
  C 3.198028 -1.503291 -3.669916
  C 2.837956 -2.097970 -5.036400
  O 6.570437 -0.854734 -2.203163
  H 2.486624 -0.182294 -1.492962
  H 4.004570 -0.100436 -0.016823
  H 5.150134 -2.430471 -3.624849
  H 5.135205 -0.801236 -4.305295
  H 2.768379 -0.504691 -3.606546
  H 2.772017 -2.138060 -2.884090
  H 3.241224 -1.476139 -5.857501
  H 1.788038 -2.151961 -5.151276
  H 3.241644 -3.107694 -5.140005
  H 6.960025 -0.514416 -1.377819
 20
 102.623766
  H 1.363890 0.276111 0.389241
  C 2.409466 0.073857 0.516449
  H 2.764577 0.047862 1.533506
  C 3.197952 -0.115910 -0.627984
  C 4.511286 -0.496969 -1.183570
  C 5.248083 -0.854519 -2.214459
  C 4.702274 -1.419341 -3.514268
  C 3.191473 -1.499300 -3.659158
  C 2.821156 -2.112772 -5.011542
  O 6.584726 -0.850430 -2.225382
  H 2.572337 -0.038821 -1.529699
  H 3.954598 -0.102908 0.046291
  H 5.141555 -2.409285 -3.618668
  H 5.123278 -0.799262 -4.307498
  H 2.758322 -0.497247 -3.609620
  H 2.773664 -2.118236 -2.868001
  H 3.209804 -1.516860 -5.823660
  H 1.738230 -2.170510 -5.121691
  H 3.225336 -3.122036 -5.104114
  H 6.984543 -0.526895 -1.402949
 20
 105.083428
  H 1.350685 0.281812 0.337591
  C 2.387695 0.061633 0.506807
  H 2.701991 0.019675 1.539052
  C 3.221213 -0.113081 -0.631244
  C 4.528641 -0.518485 -1.169032
  C 5.252689 -0.867294 -2.212260
  C 4.694512 -1.423556 -3.510884
  C 3.179658 -1.499228 -3.645284
  C 2.800087 -2.108667 -4.992964
  O 6.588847 -0.853096 -2.241770
  H 2.632255 -0.040094 -1.554618
  H 3.899204 -0.080684 0.119784
  H 5.130966 -2.418713 -3.624266
  H 5.114216 -0.798788 -4.305137
  H 2.749120 -0.496220 -3.593788
  H 2.764160 -2.118496 -2.850114
  H 3.188559 -1.508932 -5.813651
  H 1.719170 -2.162714 -5.094682
  H 3.198977 -3.114325 -5.087861
  H 6.995239 -0.499494 -1.431815
 20
 102.158556
  H 1.377624 0.403151 0.284126
  C 2.362489 0.013505 0.474910
  H 2.590875 -0.210176 1.509769
  C 3.249744 -0.064934 -0.624747
  C 4.516615 -0.537078 -1.170673
  C 5.241782 -0.865989 -2.214186
  C 4.682459 -1.423277 -3.508330
  C 3.161344 -1.506658 -3.626209
  C 2.773436 -2.121848 -4.966126
  O 6.579622 -0.840320 -2.248013
  H 2.782713 0.170121 -1.589110
  H 3.869071 -0.124269 0.200700
  H 5.126152 -2.422540 -3.629126
  H 5.090973 -0.793891 -4.303221
  H 2.722421 -0.508588 -3.574904
  H 2.754515 -2.123150 -2.822433
  H 3.151823 -1.522196 -5.792842
  H 1.693393 -2.182079 -5.058279
  H 3.178705 -3.128097 -5.062073
  H 6.982501 -0.453567 -1.446697
 20
 103.040903
  H 1.389731 0.461297 0.318741
  C 2.338717 -0.015557 0.485345
  H 2.523480 -0.360335 1.490669
  C 3.251272 -0.027643 -0.612648
  C 4.489317 -0.518261 -1.198319
  C 5.233567 -0.842806 -2.228984
  C 4.672741 -1.418701 -3.517449
  C 3.155166 -1.509176 -3.622097
  C 2.759317 -2.142930 -4.953209
  O 6.573398 -0.829860 -2.249372
  H 2.882562 0.336921 -1.576694
  H 3.806453 -0.110796 0.236561
  H 5.119162 -2.413244 -3.627940
  H 5.072508 -0.795955 -4.323019
  H 2.710056 -0.510903 -3.576325
  H 2.759206 -2.114368 -2.810519
  H 3.125018 -1.555982 -5.782099
  H 1.677841 -2.209923 -5.037111
  H 3.171401 -3.154354 -5.041510
  H 6.968729 -0.474618 -1.435757
