 20
 0.000000
  C -3.451231 -2.901202 0.255684
  C -2.624947 -1.740002 0.798209
  C -1.702844 -2.216473 1.921153
  C -1.819262 -1.085579 -0.303285
  O -1.760267 -1.543747 -1.427397
  C -1.081949 0.179089 0.048258
  H -4.063661 -3.338002 1.040224
  H -2.811520 -3.681249 -0.150584
  H -4.111905 -2.567339 -0.542015
  H -3.313591 -0.982416 1.188935
  H -0.964202 -2.920195 1.544646
  H -2.276205 -2.709134 2.700240
  H -1.170040 -1.386406 2.378257
  H -1.345765 0.523891 1.044145
  H -1.348525 0.953385 -0.664989
  H -0.014585 -0.009155 0.006937
  O 2.956183 0.163705 0.062134
  H 1.994393 -0.006826 0.007796
  H 3.466068 -0.672871 0.085120
  H 3.175147 0.738658 0.825837
 20
 0.132164
  C -3.441274 -2.889528 0.255528
  C -2.606810 -1.731096 0.795170
  C -1.677716 -2.208278 1.915761
  C -1.790267 -1.089528 -0.305040
  O -1.712731 -1.558019 -1.424216
  C -1.055234 0.168084 0.066774
  H -4.050780 -3.319396 1.042759
  H -2.796473 -3.663535 -0.149660
  H -4.094189 -2.550014 -0.542847
  H -3.276936 -0.960972 1.193268
  H -0.966423 -2.934647 1.525413
  H -2.270010 -2.696259 2.688360
  H -1.142073 -1.381769 2.370763
  H -1.326176 0.517162 1.055113
  H -1.290708 0.932223 -0.670095
  H 0.014953 -0.024293 0.019425
  O 2.861522 0.155470 0.062567
  H 1.897968 -0.012565 0.013653
  H 3.369349 -0.686230 0.079544
  H 3.087368 0.733641 0.823989
 20
 0.312796
  C -3.533682 -2.821616 0.270621
  C -2.601875 -1.738173 0.805769
  C -1.699882 -2.295505 1.914386
  C -1.729648 -1.174680 -0.295152
  O -1.632035 -1.694857 -1.388432
  C -0.955816 0.072039 0.049644
  H -4.169870 -3.205097 1.063769
  H -2.957225 -3.646672 -0.146134
  H -4.166915 -2.425074 -0.521510
  H -3.198327 -0.915525 1.213370
  H -1.055353 -3.076246 1.512638
  H -2.317256 -2.734266 2.689003
  H -1.092717 -1.518182 2.364321
  H -1.213051 0.450288 1.033508
  H -1.169953 0.824035 -0.708247
  H 0.106305 -0.155893 -0.013387
  O 2.828122 0.322830 0.059423
  H 1.878191 0.078848 0.008833
  H 3.399258 -0.469484 0.082880
  H 3.008087 0.924225 0.815840
 20
 0.480634
  C -3.613159 -2.737127 0.271328
  C -2.583213 -1.752778 0.817078
  C -1.737167 -2.405319 1.919781
  C -1.645123 -1.280767 -0.272924
  O -1.518241 -1.862077 -1.331731
  C -0.851505 -0.041751 0.038565
  H -4.293909 -3.052641 1.061315
  H -3.120750 -3.613946 -0.141243
  H -4.194209 -2.277073 -0.525699
  H -3.097437 -0.881264 1.231929
  H -1.159807 -3.231956 1.508335
  H -2.393744 -2.799217 2.689007
  H -1.060730 -1.687991 2.377834
  H -1.073847 0.341415 1.031909
  H -1.086021 0.709163 -0.710382
  H 0.202963 -0.280782 -0.064097
  O 2.761417 0.534635 0.049452
  H 1.848562 0.179540 0.009646
  H 3.434024 -0.177929 0.024897
  H 2.888399 1.126159 0.820501
 20
 1.709712
  C -3.548009 -2.764845 0.254375
  C -2.567049 -1.735290 0.804649
  C -1.707635 -2.347522 1.928780
  C -1.641428 -1.233810 -0.272590
  O -1.501643 -1.804334 -1.339921
  C -0.856399 0.008863 0.063004
  H -4.216915 -3.109700 1.037959
  H -3.011044 -3.616325 -0.149162
  H -4.142381 -2.333243 -0.546311
  H -3.124002 -0.879495 1.208910
  H -1.091228 -3.147890 1.529803
  H -2.363755 -2.770809 2.690140
  H -1.074497 -1.605547 2.397724
  H -1.086052 0.368657 1.056768
  H -1.107145 0.773128 -0.672730
  H 0.203463 -0.209729 -0.041401
  O 2.657240 0.419505 0.038911
  H 1.733473 0.091256 0.002912
  H 3.317259 -0.303013 0.000498
  H 2.808835 1.013448 0.806900
 20
 4.029002
  C -3.545262 -2.732695 0.219979
  C -2.552169 -1.738486 0.806230
  C -1.765609 -2.361877 1.964709
  C -1.552465 -1.275966 -0.231758
  O -1.325760 -1.895650 -1.251208
  C -0.804381 -0.017223 0.114585
  H -4.213382 -3.100178 0.994678
  H -3.019371 -3.568903 -0.216300
  H -4.139463 -2.259594 -0.565602
  H -3.097065 -0.851974 1.185605
  H -1.160325 -3.194008 1.596015
  H -2.466534 -2.753769 2.705796
  H -1.125201 -1.629648 2.446727
  H -1.003781 0.306494 1.135122
  H -1.099945 0.756167 -0.592550
  H 0.278372 -0.194719 -0.019052
  O 2.575450 0.446194 -0.041150
  H 1.660131 0.086921 -0.080775
  H 3.270336 -0.245252 -0.094643
  H 2.734733 1.041850 0.719912
 20
 11.029392
  C -3.456933 -2.778407 0.192653
  C -2.578189 -1.699893 0.802641
  C -1.756361 -2.288478 1.968865
  C -1.575723 -1.188240 -0.209033
  O -1.251276 -1.808605 -1.194654
  C -0.878877 0.083860 0.169212
  H -4.157141 -3.156452 0.945097
  H -2.849862 -3.614861 -0.174293
  H -4.030316 -2.391589 -0.662902
  H -3.192542 -0.869998 1.178524
  H -1.075692 -3.044060 1.571356
  H -2.448905 -2.786225 2.644958
  H -1.229999 -1.511394 2.528237
  H -1.108304 0.379156 1.196297
  H -1.119100 0.890473 -0.508937
  H 0.165687 -0.073243 0.024395
  O 2.567661 0.270806 -0.088776
  H 1.528622 0.060695 -0.041129
  H 3.165609 -0.515902 -0.148171
  H 2.887740 0.863126 0.602371
 20
 24.013365
  C -3.574578 -2.693796 0.186581
  C -2.574851 -1.748057 0.805671
  C -1.853838 -2.383474 2.004459
  C -1.534678 -1.331489 -0.207785
  O -1.299046 -1.943282 -1.231288
  C -0.796446 -0.067906 0.164915
  H -4.299377 -3.019604 0.942868
  H -3.066255 -3.576240 -0.223484
  H -4.104138 -2.217754 -0.618561
  H -3.108293 -0.862194 1.148023
  H -1.290822 -3.259975 1.666636
  H -2.586778 -2.700529 2.741692
  H -1.169711 -1.688567 2.475757
  H -0.981920 0.240067 1.198105
  H -1.073974 0.725515 -0.522566
  H 0.290236 -0.191491 0.003111
  O 2.680097 0.483384 -0.065441
  H 1.541078 0.048414 -0.082184
  H 3.436535 -0.096832 -0.232264
  H 2.926439 1.107808 0.639828
 20
 40.653466
  C -3.600950 -2.695403 0.165782
  C -2.604899 -1.737280 0.823776
  C -1.893373 -2.417326 2.012045
  C -1.518040 -1.343417 -0.162286
  O -1.272136 -1.952720 -1.171835
  C -0.836678 -0.051838 0.181830
  H -4.387160 -2.977770 0.877785
  H -3.093848 -3.603035 -0.173060
  H -4.069509 -2.231526 -0.694051
  H -3.123522 -0.841624 1.171774
  H -1.351352 -3.298055 1.669624
  H -2.635281 -2.740513 2.733761
  H -1.205570 -1.748996 2.512904
  H -0.964482 0.248546 1.219697
  H -1.160607 0.734784 -0.505935
  H 0.269296 -0.160313 -0.003966
  O 2.878410 0.548773 -0.119197
  H 1.377465 -0.007134 -0.092811
  H 3.599196 -0.086806 -0.214611
  H 3.110740 1.186271 0.559484
 20
 46.548483
  C -3.602284 -2.666159 0.117609
  C -2.611898 -1.728720 0.824460
  C -1.987645 -2.422983 2.047511
  C -1.473833 -1.369412 -0.106937
  O -1.173283 -2.000516 -1.087130
  C -0.798113 -0.092081 0.240101
  H -4.394612 -2.964386 0.801059
  H -3.088278 -3.566814 -0.238251
  H -4.054707 -2.176721 -0.739913
  H -3.129121 -0.819204 1.147450
  H -1.404789 -3.297254 1.733147
  H -2.779415 -2.769532 2.704569
  H -1.356494 -1.757429 2.610858
  H -0.891804 0.185901 1.307772
  H -1.160857 0.702304 -0.418622
  H 0.297914 -0.173134 0.019352
  O 2.930368 0.586770 -0.201522
  H 1.304679 -0.022543 -0.105667
  H 3.640089 -0.010494 -0.378192
  H 3.215193 1.188637 0.502917
 20
 53.632789
  C -3.661318 -2.667172 0.136239
  C -2.651908 -1.742775 0.816106
  C -1.989940 -2.438582 2.020970
  C -1.540331 -1.384966 -0.146198
  O -1.299070 -1.999624 -1.150821
  C -0.852114 -0.098403 0.221686
  H -4.439391 -2.957466 0.842727
  H -3.170038 -3.564612 -0.230575
  H -4.131033 -2.175237 -0.710903
  H -3.155151 -0.832938 1.158068
  H -1.431167 -3.310424 1.691289
  H -2.762227 -2.779813 2.709446
  H -1.330310 -1.772492 2.564025
  H -0.946528 0.173646 1.275794
  H -1.180385 0.700917 -0.439299
  H 0.268520 -0.193698 0.008457
  O 3.157979 0.645244 -0.148161
  H 1.246210 -0.074842 -0.101089
  H 3.898340 0.041867 -0.283340
  H 3.420791 1.267084 0.525992
 20
 56.189607
  C -3.713545 -2.605758 0.102716
  C -2.687150 -1.751132 0.832827
  C -2.091262 -2.497727 2.037188
  C -1.515507 -1.451219 -0.091474
  O -1.225335 -2.121239 -1.046855
  C -0.866911 -0.158472 0.271575
  H -4.535799 -2.851736 0.770093
  H -3.257032 -3.531431 -0.250254
  H -4.116947 -2.079556 -0.756146
  H -3.153590 -0.819820 1.170408
  H -1.522322 -3.364010 1.703771
  H -2.902193 -2.854602 2.670649
  H -1.453779 -1.859859 2.638484
  H -0.898968 0.089756 1.329938
  H -1.241687 0.648141 -0.362498
  H 0.286350 -0.202353 0.005900
  O 3.353909 0.782603 -0.206974
  H 1.240176 -0.083673 -0.137764
  H 4.102268 0.215492 -0.425274
  H 3.636696 1.371337 0.497906
 20
 56.282496
  C -3.696487 -2.546800 0.039607
  C -2.680278 -1.735304 0.830962
  C -2.186562 -2.505019 2.064036
  C -1.443700 -1.493671 -0.022156
  O -1.070413 -2.233401 -0.895238
  C -0.823140 -0.178061 0.310139
  H -4.560506 -2.761154 0.654032
  H -3.254630 -3.489714 -0.292388
  H -4.030786 -2.001018 -0.836501
  H -3.121959 -0.785124 1.141056
  H -1.605309 -3.375175 1.762296
  H -3.047944 -2.858317 2.632044
  H -1.585706 -1.880515 2.717361
  H -0.830025 0.076161 1.366812
  H -1.238270 0.617745 -0.316144
  H 0.317011 -0.196242 0.014851
  O 3.337099 0.796888 -0.251315
  H 1.272013 -0.076743 -0.153148
  H 4.082004 0.249912 -0.518016
  H 3.640012 1.371862 0.456809
 20
 61.034396
  C -3.758715 -2.542258 0.032186
  C -2.745635 -1.744784 0.843266
  C -2.247204 -2.539094 2.061568
  C -1.494249 -1.531436 -0.014457
  O -1.131229 -2.285103 -0.877135
  C -0.927444 -0.201444 0.297616
  H -4.630920 -2.754085 0.639639
  H -3.325796 -3.480894 -0.302307
  H -4.085791 -1.978290 -0.844882
  H -3.182863 -0.794416 1.154440
  H -1.717223 -3.434212 1.741919
  H -3.109730 -2.853254 2.650299
  H -1.600370 -1.946155 2.703964
  H -0.888128 0.085485 1.347649
  H -1.260850 0.576591 -0.392073
  H 0.277633 -0.205093 0.060629
  O 3.684711 0.926342 -0.278021
  H 1.232363 -0.115462 -0.126069
  H 4.444865 0.350731 -0.403761
  H 3.961211 1.618470 0.330710
 20
 69.816987
  C -3.833753 -2.478089 0.033960
  C -2.779766 -1.747326 0.855056
  C -2.259902 -2.575341 2.028449
  C -1.511037 -1.602541 -0.059038
  O -1.268953 -2.338378 -0.961957
  C -1.002186 -0.307508 0.337087
  H -4.714089 -2.651232 0.655048
  H -3.448906 -3.436182 -0.324642
  H -4.143722 -1.892842 -0.816696
  H -3.177568 -0.782073 1.184900
  H -1.748471 -3.470909 1.676825
  H -3.110479 -2.894776 2.626394
  H -1.597950 -2.008649 2.671414
  H -0.847403 -0.081156 1.374966
  H -1.331829 0.516624 -0.297886
  H 0.410409 -0.219629 0.030243
  O 3.832488 1.063551 -0.234519
  H 1.318333 -0.113607 -0.153094
  H 4.594754 0.530402 -0.484808
  H 4.114662 1.641302 0.483480
