 23
 0.000000
  C 0.994184 0.153407 0.433420
  C 2.458191 0.130693 0.376223
  H 3.034575 0.471188 1.223024
  C 3.065485 -0.331005 -0.772997
  C 4.442269 -0.416033 -0.985583
  C 5.121929 -0.870299 -2.118063
  C 4.616357 -1.390516 -3.414873
  C 3.125870 -1.507715 -3.708081
  C 2.914988 -2.070800 -5.111607
  O 6.436501 -0.865812 -2.107285
  H 0.613583 0.532663 1.377275
  H 0.597526 -0.851172 0.274928
  H 0.597053 0.768768 -0.376089
  H 2.404908 -0.648632 -1.562961
  H 5.077703 -0.089131 -0.171963
  H 5.076201 -2.377607 -3.542793
  H 5.076822 -0.765985 -4.189577
  H 2.650177 -0.527881 -3.658052
  H 2.649674 -2.180989 -2.994802
  H 3.358519 -1.422624 -5.863596
  H 1.852905 -2.156436 -5.325847
  H 3.358083 -3.059214 -5.206931
  H 6.834488 -0.534436 -1.279432
 23
 -0.511519
  C 0.808596 0.233563 0.288170
  C 2.270367 0.199284 0.247721
  H 2.821101 0.503799 1.126377
  C 2.930214 -0.230601 -0.882062
  C 4.319974 -0.237211 -1.012222
  C 5.100612 -0.674118 -2.085437
  C 4.709510 -1.356931 -3.345672
  C 3.254515 -1.675548 -3.663997
  C 3.167784 -2.431481 -4.987830
  O 6.403013 -0.513815 -2.027656
  H 0.427784 0.690085 1.195986
  H 0.412665 -0.782517 0.220921
  H 0.413728 0.758450 -0.582664
  H 2.320607 -0.557451 -1.707732
  H 4.875727 0.173439 -0.176871
  H 5.285268 -2.290339 -3.366809
  H 5.129819 -0.759052 -4.163077
  H 2.676361 -0.756308 -3.758824
  H 2.822675 -2.299689 -2.881387
  H 3.570794 -1.836773 -5.803954
  H 2.132360 -2.665007 -5.221475
  H 3.720896 -3.366442 -4.940679
  H 6.732073 -0.075059 -1.219929
 23
 -0.548981
  C 1.000053 0.243735 0.500220
  C 2.435259 -0.019581 0.384548
  H 3.035579 -0.011589 1.283512
  C 3.011490 -0.312100 -0.832021
  C 4.389011 -0.466443 -0.999048
  C 5.108534 -0.817835 -2.147787
  C 4.625854 -1.330622 -3.457428
  C 3.140112 -1.506737 -3.742807
  C 2.949106 -2.154419 -5.112293
  O 6.422863 -0.759440 -2.120322
  H 0.733154 0.656207 1.468290
  H 0.445690 -0.690709 0.368162
  H 0.656403 0.898973 -0.300152
  H 2.356995 -0.385095 -1.684235
  H 4.990576 -0.241516 -0.125864
  H 5.125770 -2.297790 -3.594031
  H 5.067278 -0.688186 -4.228474
  H 2.638493 -0.539090 -3.752712
  H 2.682632 -2.147330 -2.988690
  H 3.370776 -1.533851 -5.899146
  H 1.891250 -2.290367 -5.321550
  H 3.427919 -3.129882 -5.153233
  H 6.810103 -0.439880 -1.283011
 23
 -0.112109
  C 1.017447 0.291034 0.508771
  C 2.408132 -0.137046 0.366218
  H 2.960251 -0.361939 1.267632
  C 3.004813 -0.313879 -0.863316
  C 4.378800 -0.502893 -1.006563
  C 5.111744 -0.783770 -2.161218
  C 4.636067 -1.293250 -3.473529
  C 3.151928 -1.509465 -3.736128
  C 2.957895 -2.192894 -5.087096
  O 6.419391 -0.687935 -2.131272
  H 0.828702 0.733676 1.482807
  H 0.361000 -0.581696 0.424341
  H 0.722180 0.967206 -0.290706
  H 2.378453 -0.240594 -1.738486
  H 4.963234 -0.347947 -0.104620
  H 5.160801 -2.245708 -3.619413
  H 5.051259 -0.636297 -4.245723
  H 2.628219 -0.554516 -3.762395
  H 2.717849 -2.138467 -2.959005
  H 3.345995 -1.576919 -5.894104
  H 1.901449 -2.366924 -5.274414
  H 3.466969 -3.153408 -5.115701
  H 6.796578 -0.373921 -1.286637
 23
 5.240315
  C 0.905313 0.482073 0.390405
  C 2.135588 -0.301368 0.228582
  H 2.409945 -0.970703 1.030665
  C 2.859679 -0.321957 -0.945548
  C 4.240990 -0.486781 -0.982499
  C 5.075308 -0.627698 -2.094871
  C 4.738596 -1.233554 -3.409670
  C 3.311873 -1.693404 -3.684991
  C 3.247246 -2.421812 -5.024437
  O 6.344145 -0.317813 -2.004283
  H 0.709540 0.697307 1.440525
  H 0.045595 -0.093343 0.024348
  H 0.934960 1.399645 -0.196563
  H 2.329024 -0.083429 -1.858627
  H 4.728096 -0.452579 -0.017168
  H 5.416397 -2.091599 -3.507711
  H 5.057570 -0.539214 -4.195205
  H 2.637869 -0.841206 -3.731398
  H 2.974339 -2.366427 -2.896469
  H 3.528410 -1.760200 -5.840500
  H 2.237757 -2.779836 -5.212695
  H 3.915897 -3.279780 -5.034924
  H 6.615192 0.082008 -1.156047
 23
 16.307671
  C 1.275476 0.626541 0.730899
  C 2.139037 -0.454666 0.258243
  H 2.134800 -1.375146 0.825034
  C 2.810415 -0.420001 -0.965696
  C 4.171844 -0.600835 -1.053759
  C 4.994453 -0.642795 -2.189655
  C 4.663718 -1.243418 -3.505965
  C 3.250693 -1.759047 -3.746179
  C 3.145306 -2.365014 -5.141149
  O 6.231671 -0.225500 -2.119857
  H 1.180182 0.597849 1.813067
  H 0.262151 0.510666 0.329423
  H 1.632373 1.597595 0.396243
  H 2.241377 -0.123047 -1.834208
  H 4.657502 -0.680829 -0.088416
  H 5.376254 -2.065937 -3.632980
  H 4.926639 -0.522691 -4.286986
  H 2.530332 -0.947102 -3.673930
  H 2.996645 -2.517308 -3.005011
  H 3.302284 -1.608569 -5.905721
  H 2.160843 -2.798247 -5.292786
  H 3.884176 -3.150005 -5.281448
  H 6.485436 0.180949 -1.267810
 23
 30.637989
  C 1.448949 0.554543 0.940309
  C 2.054672 -0.503533 0.122406
  H 1.751878 -1.514978 0.322264
  C 2.695372 -0.239045 -1.124372
  C 4.041065 -0.445393 -1.166492
  C 4.941734 -0.501170 -2.256065
  C 4.680460 -1.199235 -3.535675
  C 3.271190 -1.730920 -3.774715
  C 3.212818 -2.492739 -5.091975
  O 6.183808 -0.141774 -2.099384
  H 1.372767 0.245324 1.976198
  H 0.430849 0.769183 0.597821
  H 2.002399 1.484805 0.859121
  H 2.128399 0.160126 -1.947925
  H 4.398686 -0.735289 -0.188844
  H 5.401758 -2.025211 -3.572321
  H 4.965190 -0.534937 -4.359023
  H 2.559868 -0.912311 -3.811595
  H 2.983395 -2.400680 -2.964694
  H 3.438071 -1.838400 -5.929221
  H 2.222381 -2.908757 -5.245533
  H 3.925855 -3.311958 -5.098286
  H 6.399340 0.262219 -1.234361
 23
 46.836732
  C 1.823937 0.548360 1.110596
  C 1.942211 -0.459820 0.053410
  H 1.422492 -1.397623 0.202605
  C 2.369627 -0.141827 -1.308692
  C 3.683034 -0.426803 -1.302117
  C 4.766613 -0.508909 -2.202707
  C 4.693382 -1.262383 -3.474293
  C 3.321375 -1.806922 -3.865817
  C 3.403477 -2.546965 -5.199409
  O 5.950777 -0.060059 -1.896601
  H 1.815948 0.098525 2.098520
  H 0.871407 1.069636 0.974492
  H 2.601635 1.306902 1.050426
  H 1.777221 0.363788 -2.054939
  H 3.805711 -0.851804 -0.257651
  H 5.421709 -2.078836 -3.415816
  H 5.065253 -0.599596 -4.263563
  H 2.606988 -0.986313 -3.958753
  H 2.956794 -2.492910 -3.097849
  H 3.677925 -1.868398 -6.005015
  H 2.442361 -2.992524 -5.446381
  H 4.143947 -3.343829 -5.157017
  H 5.997430 0.510513 -1.100921
 23
 55.125881
  C 1.932207 0.446506 1.142336
  C 2.047118 -0.467307 -0.013936
  H 1.565842 -1.435666 0.059212
  C 2.282235 0.062652 -1.383855
  C 3.563077 -0.274140 -1.437545
  C 4.707491 -0.445695 -2.208313
  C 4.687595 -1.284089 -3.440964
  C 3.315256 -1.759982 -3.905626
  C 3.442715 -2.590657 -5.178246
  O 5.910359 -0.091543 -1.809416
  H 1.975351 -0.090584 2.085039
  H 0.961689 0.947345 1.075983
  H 2.683927 1.232311 1.131638
  H 1.649924 0.653785 -2.015268
  H 3.492973 -0.784915 -0.270586
  H 5.348177 -2.142218 -3.276067
  H 5.162853 -0.694495 -4.231687
  H 2.673068 -0.902097 -4.103259
  H 2.845904 -2.366245 -3.130128
  H 3.830553 -1.989524 -5.997127
  H 2.472982 -2.980595 -5.475799
  H 4.113272 -3.433229 -5.026345
  H 5.938188 0.493949 -1.031090
 23
 46.757912
  C 1.995708 0.507091 1.146961
  C 2.140063 -0.498350 0.037836
  H 1.678523 -1.471762 0.167407
  C 2.250327 0.019793 -1.377973
  C 3.512833 -0.262239 -1.550983
  C 4.674582 -0.457622 -2.237789
  C 4.688950 -1.298606 -3.469979
  C 3.330510 -1.752332 -3.985384
  C 3.492216 -2.585548 -5.250704
  O 5.869173 -0.121945 -1.797186
  H 2.072022 0.026240 2.119346
  H 1.012724 0.981107 1.071756
  H 2.732698 1.305405 1.077134
  H 1.530485 0.538585 -1.974958
  H 3.317317 -0.763648 -0.048596
  H 5.323209 -2.169732 -3.266328
  H 5.208916 -0.723432 -4.240569
  H 2.708898 -0.882957 -4.204417
  H 2.820410 -2.348281 -3.225639
  H 3.943731 -1.998091 -6.047767
  H 2.523881 -2.936852 -5.599064
  H 4.120403 -3.453698 -5.067045
  H 5.883425 0.437436 -0.998853
 23
 33.470894
  C 1.992871 0.440302 1.210812
  C 2.146738 -0.528857 0.059321
  H 1.455786 -1.370226 0.029576
  C 2.326448 0.140203 -1.296862
  C 3.530486 -0.177960 -1.632420
  C 4.689052 -0.396244 -2.310718
  C 4.699152 -1.290207 -3.504104
  C 3.336872 -1.752243 -4.012900
  C 3.506433 -2.672150 -5.220830
  O 5.874584 -0.027185 -1.892064
  H 1.919325 -0.099077 2.151795
  H 1.079919 1.026922 1.076926
  H 2.818098 1.150371 1.259111
  H 1.610665 0.781211 -1.783295
  H 3.179823 -0.962949 0.081493
  H 5.331987 -2.154440 -3.267966
  H 5.230388 -0.754871 -4.298980
  H 2.738357 -0.889903 -4.306307
  H 2.804516 -2.290679 -3.227214
  H 3.980226 -2.145333 -6.046239
  H 2.539957 -3.033230 -5.560897
  H 4.120551 -3.535738 -4.969886
  H 5.886880 0.638497 -1.180968
 23
 23.987643
  C 1.895058 0.502651 1.238818
  C 2.168840 -0.525546 0.162603
  H 1.442939 -1.334547 0.115433
  C 2.413641 0.097759 -1.201036
  C 3.570620 -0.179124 -1.680516
  C 4.723647 -0.425697 -2.357267
  C 4.717925 -1.309521 -3.552446
  C 3.348662 -1.779092 -4.029754
  C 3.489967 -2.674651 -5.256310
  O 5.903110 -0.007314 -1.977524
  H 1.722001 -0.001078 2.185860
  H 1.015760 1.095809 0.996222
  H 2.733721 1.181435 1.360995
  H 1.698614 0.798379 -1.605687
  H 3.138750 -1.003209 0.359587
  H 5.354168 -2.171804 -3.318639
  H 5.235985 -0.779428 -4.358611
  H 2.729738 -0.919491 -4.286347
  H 2.844852 -2.334217 -3.237283
  H 3.890308 -2.118284 -6.100151
  H 2.522612 -3.075637 -5.545503
  H 4.153283 -3.511290 -5.052848
  H 5.917055 0.603564 -1.213782
 23
 20.189863
  C 1.678236 0.547007 1.187283
  C 2.306752 -0.498273 0.286380
  H 1.657617 -1.369207 0.167017
  C 2.628075 0.039642 -1.089992
  C 3.755152 -0.227691 -1.644128
  C 4.857044 -0.485015 -2.395527
  C 4.751833 -1.316264 -3.624395
  C 3.345728 -1.771256 -3.997439
  C 3.375143 -2.656347 -5.239137
  O 6.063608 -0.082113 -2.089934
  H 1.365305 0.080399 2.118243
  H 0.804941 0.996925 0.720170
  H 2.386316 1.335958 1.429474
  H 1.915657 0.744008 -1.507463
  H 3.251144 -0.857072 0.699618
  H 5.405965 -2.185091 -3.480312
  H 5.201177 -0.753285 -4.448952
  H 2.716324 -0.903207 -4.196232
  H 2.901600 -2.329030 -3.171955
  H 3.756829 -2.109058 -6.097855
  H 2.374146 -3.004532 -5.478712
  H 4.006004 -3.527937 -5.081792
  H 6.137429 0.480459 -1.295459
 23
 19.132488
  C 1.501663 0.541505 1.110924
  C 2.432407 -0.413967 0.391020
  H 1.931559 -1.370844 0.226624
  C 2.844087 0.083095 -0.972572
  C 3.899514 -0.249750 -1.618535
  C 4.952391 -0.557480 -2.424032
  C 4.756077 -1.370949 -3.650216
  C 3.317247 -1.756590 -3.968992
  C 3.263107 -2.637645 -5.211866
  O 6.180079 -0.175128 -2.192344
  H 1.145265 0.080044 2.026898
  H 0.639883 0.790923 0.500141
  H 2.014922 1.458581 1.382261
  H 2.162206 0.820343 -1.392913
  H 3.328702 -0.595985 0.981858
  H 5.369907 -2.272725 -3.535824
  H 5.201550 -0.829348 -4.490808
  H 2.722090 -0.860040 -4.142650
  H 2.879417 -2.295511 -3.128449
  H 3.662331 -2.114448 -6.076792
  H 2.237076 -2.917820 -5.432515
  H 3.837277 -3.549385 -5.068336
  H 6.313973 0.358861 -1.386493
 23
 19.502167
  C 1.351189 0.492888 0.954121
  C 2.541844 -0.314755 0.466717
  H 2.282269 -1.378172 0.425588
  C 3.000352 0.075980 -0.905715
  C 4.047306 -0.305454 -1.543118
  C 5.042323 -0.638273 -2.403028
  C 4.748325 -1.411246 -3.640196
  C 3.278578 -1.713297 -3.907442
  C 3.128167 -2.563325 -5.164511
  O 6.303257 -0.337364 -2.216270
  H 0.991305 0.081831 1.893481
  H 0.534197 0.464684 0.238412
  H 1.625224 1.529398 1.131923
  H 2.361993 0.826677 -1.377010
  H 3.376360 -0.220521 1.165282
  H 5.316357 -2.346907 -3.568749
  H 5.187585 -0.872569 -4.485512
  H 2.725714 -0.783165 -4.040108
  H 2.846066 -2.247050 -3.060027
  H 3.531873 -2.048181 -6.032838
  H 2.079309 -2.773546 -5.355669
  H 3.647447 -3.512567 -5.057590
  H 6.505494 0.159842 -1.397250
