 17
 0.000000
  H 1.416459 0.184216 0.509628
  C 2.482216 0.132359 0.380520
  H 3.112991 0.458024 1.190431
  C 3.007635 -0.336733 -0.787048
  C 4.394389 -0.413664 -0.979231
  C 5.110895 -0.862566 -2.098845
  C 4.624691 -1.383242 -3.397199
  C 3.141325 -1.504285 -3.699126
  H 3.025676 -1.906239 -4.701358
  O 6.417106 -0.843604 -2.051919
  H 2.341546 -0.651663 -1.570949
  H 4.997299 -0.077308 -0.141889
  H 5.097767 -2.365451 -3.521508
  H 5.097927 -0.759377 -4.165827
  H 2.647884 -0.536534 -3.672621
  H 2.647827 -2.185549 -3.011274
  H 6.809222 -0.511191 -1.220122
 17
 2.020864
  H 1.387014 0.156756 0.503124
  C 2.455076 0.137222 0.376374
  H 3.057506 0.517954 1.185086
  C 3.026428 -0.336537 -0.760629
  C 4.413085 -0.410474 -0.939559
  C 5.100206 -0.859524 -2.082878
  C 4.602429 -1.376097 -3.380274
  C 3.122514 -1.498435 -3.702578
  H 3.026624 -1.898488 -4.709041
  O 6.407244 -0.845298 -2.064495
  H 2.504069 -0.707353 -1.619202
  H 5.063940 -0.093846 -0.130101
  H 5.078410 -2.357216 -3.506244
  H 5.082332 -0.750258 -4.144168
  H 2.620554 -0.534414 -3.686758
  H 2.615432 -2.189493 -3.033673
  H 6.822918 -0.517366 -1.243364
 17
 5.083258
  H 1.391635 0.074580 0.535345
  C 2.445603 0.156688 0.367117
  H 3.049422 0.701581 1.081253
  C 3.024055 -0.363481 -0.721366
  C 4.419762 -0.442656 -0.908852
  C 5.087795 -0.864678 -2.070545
  C 4.589678 -1.375241 -3.383824
  C 3.113482 -1.477953 -3.710817
  H 3.025003 -1.856777 -4.724168
  O 6.412994 -0.827705 -2.067612
  H 2.544697 -0.840612 -1.587991
  H 5.093257 -0.156838 -0.109107
  H 5.079322 -2.349607 -3.523300
  H 5.095026 -0.753887 -4.138332
  H 2.622533 -0.511554 -3.683839
  H 2.594680 -2.178728 -3.064862
  H 6.814782 -0.499743 -1.236711
 17
 5.785255
  H 1.400607 -0.019399 0.536714
  C 2.427840 0.168134 0.321838
  H 2.948665 0.884269 0.937181
  C 3.054807 -0.427452 -0.707464
  C 4.447964 -0.469533 -0.896804
  C 5.111280 -0.882259 -2.063477
  C 4.588602 -1.384076 -3.360829
  C 3.109210 -1.447883 -3.686874
  H 3.012687 -1.754107 -4.723724
  O 6.423619 -0.827759 -2.086183
  H 2.582736 -1.016807 -1.487668
  H 5.123008 -0.156034 -0.104171
  H 5.067821 -2.351233 -3.565176
  H 5.064600 -0.740497 -4.118203
  H 2.644578 -0.472183 -3.615193
  H 2.571187 -2.173751 -3.085578
  H 6.851168 -0.502326 -1.257780
 17
 7.086634
  H 1.356999 -0.125496 0.479453
  C 2.391441 0.166467 0.255812
  H 2.851163 1.002599 0.784742
  C 3.089303 -0.471319 -0.705270
  C 4.496644 -0.497251 -0.892507
  C 5.140864 -0.871176 -2.077000
  C 4.592766 -1.350601 -3.370912
  C 3.099236 -1.397654 -3.634989
  H 2.961137 -1.711823 -4.668690
  O 6.459127 -0.812435 -2.126860
  H 2.655490 -1.165185 -1.427670
  H 5.163752 -0.220827 -0.082499
  H 5.029027 -2.349276 -3.533644
  H 5.056066 -0.726044 -4.132617
  H 2.633276 -0.417383 -3.525588
  H 2.593285 -2.122522 -3.020696
  H 6.891398 -0.510406 -1.303058
 17
 11.224011
  H 1.410745 -0.135074 0.554006
  C 2.363777 0.199131 0.206268
  H 2.787913 1.084750 0.654310
  C 3.073036 -0.491555 -0.665205
  C 4.493422 -0.545041 -0.904712
  C 5.142980 -0.906065 -2.088706
  C 4.594870 -1.345696 -3.398837
  C 3.102702 -1.392313 -3.627913
  H 2.922568 -1.657121 -4.657944
  O 6.468626 -0.826718 -2.129923
  H 2.716955 -1.331569 -1.310328
  H 5.131347 -0.210341 -0.107733
  H 5.078517 -2.308071 -3.634641
  H 5.054364 -0.651043 -4.121537
  H 2.651130 -0.423418 -3.452065
  H 2.618317 -2.135210 -3.012539
  H 6.884206 -0.511957 -1.303342
 17
 13.185927
  H 1.383765 -0.134256 0.452419
  C 2.359194 0.167477 0.139216
  H 2.691288 1.157995 0.403904
  C 3.118149 -0.585532 -0.642481
  C 4.531126 -0.595272 -0.864622
  C 5.163182 -0.881633 -2.075995
  C 4.576732 -1.255825 -3.386961
  C 3.078839 -1.356513 -3.567143
  H 2.885247 -1.637657 -4.601070
  O 6.479518 -0.799795 -2.152006
  H 2.858047 -1.478285 -1.212668
  H 5.209853 -0.280815 -0.074684
  H 5.018725 -2.226945 -3.629087
  H 5.006428 -0.595303 -4.144350
  H 2.584068 -0.403454 -3.377916
  H 2.633335 -2.133032 -2.947050
  H 6.930848 -0.543346 -1.327146
 17
 14.568730
  H 1.410803 -0.237302 0.476406
  C 2.314678 0.153169 0.059575
  H 2.549569 1.185427 0.258640
  C 3.142761 -0.582674 -0.638775
  C 4.560028 -0.596236 -0.888133
  C 5.189100 -0.895066 -2.091677
  C 4.581903 -1.261286 -3.406717
  C 3.072466 -1.306691 -3.541856
  H 2.828686 -1.622894 -4.551997
  O 6.505178 -0.807510 -2.174634
  H 2.945871 -1.598736 -1.042996
  H 5.226910 -0.289388 -0.085481
  H 4.985065 -2.250094 -3.648180
  H 5.001464 -0.581040 -4.145073
  H 2.627002 -0.329556 -3.370974
  H 2.617905 -2.025197 -2.862635
  H 6.957173 -0.527305 -1.354165
 17
 15.820668
  H 1.394547 -0.281956 0.358316
  C 2.306229 0.136969 -0.000020
  H 2.430926 1.213988 0.119367
  C 3.186852 -0.587401 -0.671461
  C 4.600356 -0.595409 -0.908970
  C 5.229440 -0.888416 -2.107684
  C 4.577634 -1.262522 -3.401625
  C 3.053444 -1.289422 -3.467151
  H 2.744111 -1.498620 -4.506303
  O 6.533911 -0.829050 -2.187031
  H 3.043757 -1.625222 -0.925681
  H 5.234198 -0.272073 -0.091627
  H 4.983240 -2.238659 -3.701394
  H 4.962865 -0.567968 -4.129027
  H 2.625550 -0.331886 -3.182046
  H 2.624361 -2.076970 -2.844094
  H 6.996492 -0.564888 -1.361784
 17
 20.692289
  H 1.420830 -0.308377 0.388010
  C 2.279545 0.157158 -0.045695
  H 2.290602 1.240123 -0.071413
  C 3.208745 -0.523946 -0.665399
  C 4.614900 -0.628916 -0.910782
  C 5.235459 -0.841480 -2.135105
  C 4.572405 -1.208174 -3.413521
  C 3.052836 -1.289618 -3.448293
  H 2.735370 -1.527305 -4.464855
  O 6.545702 -0.854754 -2.217944
  H 3.123409 -1.638061 -0.702995
  H 5.264822 -0.405102 -0.077514
  H 5.008588 -2.145410 -3.750982
  H 4.897322 -0.475486 -4.144321
  H 2.600575 -0.347476 -3.165700
  H 2.670392 -2.075375 -2.792464
  H 7.019688 -0.671939 -1.386957
 17
 26.711345
  H 1.510263 -0.498033 0.504230
  C 2.213391 0.079140 -0.072470
  H 1.974536 1.117801 -0.210634
  C 3.249920 -0.464988 -0.656715
  C 4.637224 -0.588885 -0.951679
  C 5.250388 -0.903918 -2.149540
  C 4.564382 -1.246921 -3.424408
  C 3.048265 -1.171224 -3.440871
  H 2.694796 -1.467473 -4.428490
  O 6.564012 -0.938198 -2.239273
  H 3.350766 -1.589518 -0.510087
  H 5.280883 -0.294306 -0.128064
  H 4.891611 -2.253404 -3.703838
  H 4.981298 -0.588848 -4.193610
  H 2.700246 -0.162327 -3.248972
  H 2.600152 -1.850172 -2.721174
  H 7.042436 -0.704765 -1.423475
 17
 33.379693
  H 1.480819 -0.585437 0.413078
  C 2.172346 0.051767 -0.097202
  H 1.871577 1.094742 -0.179844
  C 3.277669 -0.375418 -0.632913
  C 4.653514 -0.587107 -0.935392
  C 5.250357 -0.905095 -2.152249
  C 4.550838 -1.249066 -3.416196
  C 3.029364 -1.142622 -3.431287
  H 2.664764 -1.459964 -4.409475
  O 6.567708 -0.991348 -2.250591
  H 3.542743 -1.515058 -0.472885
  H 5.335327 -0.302109 -0.140497
  H 4.852267 -2.263275 -3.688023
  H 4.972677 -0.615030 -4.193471
  H 2.702285 -0.122272 -3.272473
  H 2.569315 -1.791724 -2.683196
  H 7.061073 -0.751866 -1.444451
 17
 38.653875
  H 1.413687 -0.520923 0.267758
  C 2.173427 0.111668 -0.161618
  H 1.905673 1.154306 -0.243232
  C 3.309509 -0.314734 -0.591879
  C 4.650646 -0.656546 -0.889596
  C 5.237878 -0.906679 -2.141728
  C 4.525257 -1.219020 -3.410514
  C 3.005118 -1.190371 -3.379400
  H 2.631114 -1.438842 -4.372171
  O 6.562689 -0.983984 -2.256859
  H 3.708154 -1.523237 -0.526242
  H 5.351741 -0.420062 -0.093232
  H 4.873579 -2.202093 -3.747410
  H 4.888014 -0.517843 -4.162856
  H 2.634309 -0.204043 -3.122271
  H 2.598372 -1.922049 -2.684810
  H 7.055087 -0.779952 -1.445667
 17
 40.613620
  H 1.352326 -0.445358 0.151094
  C 2.171210 0.164363 -0.206981
  H 1.948769 1.223204 -0.259523
  C 3.309995 -0.286859 -0.558770
  C 4.628525 -0.719901 -0.843925
  C 5.221041 -0.916195 -2.125258
  C 4.506407 -1.207691 -3.396284
  C 2.985393 -1.217193 -3.349979
  H 2.607550 -1.451302 -4.341898
  O 6.545448 -0.949323 -2.245093
  H 3.891333 -1.622480 -0.640806
  H 5.324432 -0.487068 -0.041309
  H 4.874111 -2.171013 -3.767205
  H 4.845180 -0.471732 -4.133215
  H 2.592619 -0.246394 -3.066375
  H 2.603189 -1.975967 -2.672336
  H 7.036027 -0.768162 -1.420799
