 29
 0.000000
  H 1.436428 0.152784 0.432671
  C 2.514749 0.146127 0.415560
  C 3.277166 0.614231 1.579788
  C 2.448539 1.091519 2.767785
  C 3.349145 1.551185 3.910723
  C 3.099445 -0.321163 -0.747749
  C 4.474537 -0.414847 -0.981778
  C 5.135764 -0.872193 -2.122329
  C 4.609108 -1.389704 -3.412645
  C 3.114398 -1.498959 -3.686340
  C 2.882394 -2.060755 -5.087020
  O 6.453122 -0.876883 -2.134653
  H 3.937583 1.430746 1.263052
  H 3.938060 -0.194002 1.916088
  H 1.807662 0.284201 3.126442
  H 1.807234 1.922208 2.468071
  H 3.984615 0.739426 4.257386
  H 2.748718 1.888991 4.751631
  H 3.984118 2.377372 3.598964
  H 2.424382 -0.633740 -1.525702
  H 5.115878 -0.089314 -0.170930
  H 5.061500 -2.379416 -3.546630
  H 5.062173 -0.767390 -4.193452
  H 2.644286 -0.516657 -3.629742
  H 2.643652 -2.169506 -2.966706
  H 3.319706 -1.414675 -5.844513
  H 1.817100 -2.140749 -5.287469
  H 3.319126 -3.051486 -5.187901
  H 6.851121 -0.544992 -1.306641
 29
 0.437022
  H 1.474297 0.465839 0.479663
  C 2.525172 0.230146 0.400923
  C 3.325051 0.598531 1.579027
  C 2.488883 1.113161 2.750825
  C 3.368649 1.479083 3.938792
  C 3.009123 -0.287946 -0.780769
  C 4.377263 -0.467233 -0.993842
  C 5.092024 -0.837961 -2.135662
  C 4.616970 -1.361351 -3.438585
  C 3.129782 -1.566023 -3.692494
  C 2.914287 -2.141012 -5.090612
  O 6.398150 -0.720395 -2.106871
  H 4.051486 1.368734 1.306016
  H 3.910401 -0.262008 1.917533
  H 1.776304 0.346536 3.057483
  H 1.919020 1.990735 2.443456
  H 3.929458 0.615249 4.287931
  H 2.760711 1.839417 4.763747
  H 4.072774 2.264685 3.674094
  H 2.301830 -0.495086 -1.561109
  H 5.005823 -0.218251 -0.143250
  H 5.140735 -2.315118 -3.588980
  H 5.026991 -0.698440 -4.211749
  H 2.600050 -0.615962 -3.624668
  H 2.714668 -2.260543 -2.960815
  H 3.300750 -1.468475 -5.852080
  H 1.854589 -2.289617 -5.279702
  H 3.412764 -3.101001 -5.198085
  H 6.753602 -0.340996 -1.278788
 29
 5.837620
  H 1.397506 0.515864 0.631491
  C 2.412365 0.222430 0.404361
  C 3.306716 0.589440 1.521939
  C 2.557165 1.110825 2.744395
  C 3.526112 1.465027 3.870472
  C 2.795297 -0.323665 -0.802919
  C 4.161040 -0.532831 -1.012250
  C 5.006110 -0.843812 -2.082909
  C 4.665312 -1.355566 -3.424486
  C 3.192450 -1.592314 -3.721179
  C 3.010290 -2.124527 -5.137818
  O 6.286005 -0.635996 -1.884189
  H 4.032445 1.353849 1.209151
  H 3.900848 -0.279478 1.839367
  H 1.858421 0.352468 3.100241
  H 1.980220 1.999033 2.479312
  H 4.101209 0.596255 4.177387
  H 2.983859 1.836621 4.734944
  H 4.218849 2.242158 3.555271
  H 2.053482 -0.510591 -1.553858
  H 4.740703 -0.300904 -0.121822
  H 5.232810 -2.283927 -3.577236
  H 5.080734 -0.654945 -4.155481
  H 2.638344 -0.659113 -3.620274
  H 2.782856 -2.314651 -3.014184
  H 3.392221 -1.416343 -5.870923
  H 1.958919 -2.290719 -5.348936
  H 3.536748 -3.065705 -5.269944
  H 6.496564 -0.237767 -1.018655
 29
 8.973808
  H 1.402226 0.653724 0.691704
  C 2.367652 0.282900 0.375470
  C 3.300738 0.586663 1.493901
  C 2.587366 1.131055 2.729717
  C 3.578056 1.432849 3.842979
  C 2.748086 -0.313676 -0.799143
  C 4.108231 -0.640292 -0.945727
  C 4.970883 -0.867822 -2.030588
  C 4.655327 -1.318041 -3.404967
  C 3.193877 -1.607423 -3.738315
  C 3.064159 -2.082871 -5.172900
  O 6.246551 -0.645993 -1.823280
  H 4.041561 1.334742 1.170705
  H 3.848927 -0.317574 1.800701
  H 1.864195 0.396840 3.090275
  H 2.046596 2.049134 2.477774
  H 4.117940 0.533315 4.139274
  H 3.059217 1.816786 4.717468
  H 4.300616 2.181955 3.527151
  H 2.030427 -0.453096 -1.586302
  H 4.662217 -0.559126 -0.011916
  H 5.262766 -2.214757 -3.590026
  H 5.047617 -0.562167 -4.096989
  H 2.594596 -0.705878 -3.613535
  H 2.807080 -2.384010 -3.074413
  H 3.423485 -1.325957 -5.868001
  H 2.029202 -2.290564 -5.408038
  H 3.635097 -2.993556 -5.333819
  H 6.453441 -0.270512 -0.947209
 29
 10.258163
  H 1.484288 0.862900 0.587985
  C 2.424530 0.393736 0.352554
  C 3.337576 0.617488 1.502191
  C 2.608734 1.134370 2.747551
  C 3.581406 1.381497 3.889656
  C 2.764993 -0.264111 -0.801361
  C 4.084260 -0.733835 -0.934887
  C 4.951865 -0.879002 -2.034657
  C 4.641655 -1.297198 -3.422779
  C 3.202333 -1.681810 -3.743856
  C 3.082256 -2.110635 -5.204224
  O 6.213521 -0.582660 -1.845749
  H 4.093266 1.372992 1.228495
  H 3.867888 -0.301492 1.782898
  H 1.866007 0.408828 3.063463
  H 2.086063 2.068534 2.516985
  H 4.094956 0.466786 4.168513
  H 3.051720 1.742600 4.764564
  H 4.317146 2.126162 3.616073
  H 2.050703 -0.329627 -1.606939
  H 4.634473 -0.730530 0.005845
  H 5.317836 -2.134817 -3.648962
  H 4.974788 -0.496668 -4.091771
  H 2.544115 -0.829563 -3.574821
  H 2.885870 -2.500312 -3.100275
  H 3.371387 -1.300390 -5.871472
  H 2.057907 -2.390180 -5.434647
  H 3.722336 -2.970204 -5.414655
  H 6.408696 -0.224387 -0.959265
 29
 14.119403
  H 1.629479 1.080896 0.438005
  C 2.512815 0.462865 0.328147
  C 3.402891 0.603982 1.504340
  C 2.673909 1.184410 2.719949
  C 3.621999 1.356382 3.903777
  C 2.729484 -0.294489 -0.788453
  C 3.988937 -0.903777 -0.929639
  C 4.895056 -0.922978 -2.010425
  C 4.637833 -1.257835 -3.422383
  C 3.239002 -1.760157 -3.764168
  C 3.134692 -2.073765 -5.250748
  O 6.104944 -0.501995 -1.742346
  H 4.224768 1.287506 1.263598
  H 3.852579 -0.348806 1.799469
  H 1.855549 0.522787 3.010432
  H 2.240132 2.154834 2.470341
  H 4.051097 0.402134 4.203697
  H 3.087452 1.767406 4.758861
  H 4.432226 2.040124 3.657233
  H 2.018341 -0.261236 -1.596234
  H 4.496155 -1.053806 0.021958
  H 5.382291 -2.005488 -3.715716
  H 4.884820 -0.383236 -4.033612
  H 2.501781 -0.999880 -3.518434
  H 3.013763 -2.657453 -3.187023
  H 3.321755 -1.186054 -5.849655
  H 2.140285 -2.439498 -5.492348
  H 3.850901 -2.837717 -5.537827
  H 6.232585 -0.190892 -0.826865
 29
 25.608796
  H 2.408219 1.694728 -0.009001
  C 2.963631 0.788156 0.157298
  C 3.613120 0.673466 1.485059
  C 2.770287 1.332827 2.580974
  C 3.448088 1.218531 3.937521
  C 2.947085 -0.150268 -0.826336
  C 3.904322 -1.205198 -0.860825
  C 4.826630 -1.017422 -1.934083
  C 4.519274 -1.192228 -3.364653
  C 3.207679 -1.917339 -3.700402
  C 3.055936 -2.063893 -5.212449
  O 5.988681 -0.512261 -1.664414
  H 4.577140 1.183565 1.471132
  H 3.786035 -0.363500 1.746199
  H 1.789037 0.853357 2.621227
  H 2.619416 2.382468 2.348540
  H 3.598160 0.175960 4.211992
  H 2.831356 1.682083 4.708209
  H 4.415017 1.716286 3.929661
  H 2.448297 0.092959 -1.749045
  H 4.290690 -1.592165 0.084817
  H 5.358039 -1.760902 -3.784578
  H 4.567370 -0.221244 -3.870731
  H 2.341138 -1.376190 -3.313984
  H 3.212887 -2.913315 -3.241693
  H 3.015252 -1.088615 -5.695122
  H 2.142211 -2.593344 -5.451062
  H 3.887192 -2.618059 -5.637205
  H 6.190488 -0.442954 -0.711020
 29
 25.977791
  H 2.210855 1.517794 0.057974
  C 2.854018 0.657516 0.180274
  C 3.575010 0.603146 1.468596
  C 2.803409 1.334244 2.573041
  C 3.564644 1.290640 3.893234
  C 2.865541 -0.254120 -0.812653
  C 3.887274 -1.247171 -0.856029
  C 4.815545 -1.035551 -1.917634
  C 4.553371 -1.202131 -3.354849
  C 3.235053 -1.872099 -3.735045
  C 3.123127 -1.998487 -5.250861
  O 5.949540 -0.478739 -1.595571
  H 4.546102 1.100126 1.379376
  H 3.747999 -0.427240 1.784733
  H 1.823440 0.871502 2.702334
  H 2.646641 2.375942 2.286709
  H 3.719128 0.264440 4.219823
  H 3.004894 1.808292 4.668533
  H 4.534760 1.773394 3.798542
  H 2.325689 -0.030738 -1.717438
  H 4.288264 -1.592718 0.087028
  H 5.386527 -1.795516 -3.753938
  H 4.654699 -0.227767 -3.845765
  H 2.384978 -1.300936 -3.367965
  H 3.185465 -2.866084 -3.287572
  H 3.131746 -1.019280 -5.723751
  H 2.195058 -2.494736 -5.521745
  H 3.947195 -2.580645 -5.656247
  H 6.085625 -0.324816 -0.639520
