 18
 0.000000
  C 0.901676 0.055725 0.201765
  C 2.401660 0.060494 0.088810
  C 3.251589 -0.008096 1.343472
  C 2.523822 -0.091727 2.679062
  H 3.251209 -0.135426 3.484055
  C 3.012509 0.124744 -1.089043
  C 2.364148 0.200617 -2.433115
  H 1.280594 0.200374 -2.394069
  H 4.095027 0.124736 -1.124987
  H 0.570715 0.010804 1.233717
  H 0.476328 -0.805484 -0.311850
  H 0.481884 0.961123 -0.235617
  H 3.897383 0.874998 1.364130
  H 3.908237 -0.879387 1.260435
  H 1.904613 -0.983990 2.733823
  H 1.894509 0.780487 2.839439
  H 2.689413 -0.645018 -3.043431
  H 2.692860 1.107394 -2.946027
 18
 5.681009
  C 0.897135 0.112276 0.209692
  C 2.356623 0.064249 0.083721
  C 3.249608 -0.003182 1.360431
  C 2.527971 -0.105960 2.689912
  H 3.260903 -0.147786 3.492947
  C 2.984721 0.110775 -1.088412
  C 2.349254 0.194623 -2.441400
  H 1.265733 0.222937 -2.387503
  H 4.067801 0.076305 -1.104649
  H 0.521535 0.036659 1.222505
  H 0.717056 -0.788780 -0.353226
  H 0.446439 0.977332 -0.269512
  H 3.880853 0.885643 1.377232
  H 3.915210 -0.860787 1.260299
  H 1.921757 -1.008680 2.741176
  H 1.891786 0.760174 2.862476
  H 2.646307 -0.663223 -3.046038
  H 2.693766 1.090124 -2.959607
 18
 17.697006
  C 0.890299 0.152934 0.229464
  C 2.336628 0.072360 0.091361
  C 3.254774 0.008765 1.349504
  C 2.518758 -0.118247 2.684903
  H 3.244252 -0.157839 3.496438
  C 2.965306 0.093845 -1.078834
  C 2.337167 0.189867 -2.431775
  H 1.255711 0.260381 -2.383815
  H 4.043301 0.010273 -1.094297
  H 0.492884 0.029924 1.220850
  H 0.932809 -0.742920 -0.343618
  H 0.423866 0.977982 -0.279908
  H 3.866334 0.917003 1.361189
  H 3.934997 -0.840259 1.229422
  H 1.922525 -1.031099 2.721980
  H 1.867508 0.738644 2.859209
  H 2.602804 -0.684957 -3.030728
  H 2.716017 1.071151 -2.955684
 18
 31.940591
  C 0.873603 0.188375 0.239149
  C 2.322090 0.078069 0.080284
  C 3.252240 0.011272 1.357098
  C 2.518621 -0.136084 2.691333
  H 3.240596 -0.176502 3.496876
  C 2.960797 0.083833 -1.090260
  C 2.333267 0.185837 -2.442374
  H 1.250819 0.272129 -2.390163
  H 4.036807 -0.021064 -1.101393
  H 0.472269 0.075921 1.234054
  H 1.091248 -0.721772 -0.292741
  H 0.381696 0.969956 -0.326120
  H 3.847617 0.930549 1.370974
  H 3.943615 -0.827615 1.227463
  H 1.933912 -1.051098 2.720655
  H 1.863236 0.709097 2.874719
  H 2.583752 -0.696265 -3.042172
  H 2.723226 1.063142 -2.971919
 18
 44.963011
  C 0.864932 0.221785 0.250650
  C 2.316216 0.081932 0.078419
  C 3.237836 0.008821 1.353237
  C 2.517053 -0.152671 2.681723
  H 3.248442 -0.198545 3.485382
  C 2.965127 0.078681 -1.091850
  C 2.333274 0.185911 -2.450704
  H 1.252344 0.274996 -2.393650
  H 4.037312 -0.035589 -1.096595
  H 0.467422 0.149524 1.251463
  H 1.225598 -0.706985 -0.201355
  H 0.353394 0.925539 -0.377473
  H 3.821190 0.930221 1.368810
  H 3.934062 -0.821573 1.217381
  H 1.934144 -1.071318 2.706831
  H 1.858836 0.691089 2.879723
  H 2.575859 -0.695023 -3.053018
  H 2.719672 1.057993 -2.982537
 18
 54.871712
  C 0.869329 0.247692 0.271274
  C 2.315214 0.081342 0.071654
  C 3.222178 0.004351 1.341428
  C 2.506321 -0.163136 2.670861
  H 3.239978 -0.211607 3.465035
  C 2.971325 0.076553 -1.104935
  C 2.338800 0.180700 -2.451227
  H 1.254958 0.263265 -2.384285
  H 4.036690 -0.033792 -1.106191
  H 0.490546 0.196326 1.273387
  H 1.332018 -0.692725 -0.132982
  H 0.331562 0.900236 -0.387393
  H 3.802588 0.926915 1.361966
  H 3.920901 -0.823854 1.207867
  H 1.922446 -1.085309 2.694961
  H 1.849007 0.680239 2.876617
  H 2.581643 -0.701248 -3.056866
  H 2.718485 1.062110 -2.991460
 18
 61.446149
  C 0.861041 0.274278 0.271847
  C 2.313388 0.076198 0.075477
  C 3.224542 0.001136 1.347856
  C 2.506481 -0.175299 2.683300
  H 3.249283 -0.228094 3.484590
  C 2.974640 0.071127 -1.102770
  C 2.331013 0.183819 -2.477326
  H 1.251179 0.263978 -2.412150
  H 4.060622 -0.044998 -1.095798
  H 0.471734 0.261163 1.274410
  H 1.411815 -0.692099 -0.070216
  H 0.311094 0.858658 -0.440088
  H 3.798384 0.925285 1.369053
  H 3.932778 -0.825555 1.210515
  H 1.924350 -1.095241 2.703516
  H 1.853189 0.660686 2.894025
  H 2.571685 -0.687542 -3.085266
  H 2.703939 1.061796 -3.013242
 18
 66.808250
  C 0.859841 0.303379 0.275479
  C 2.312026 0.076533 0.074297
  C 3.225689 -0.001628 1.348126
  C 2.511522 -0.186317 2.678266
  H 3.244889 -0.247195 3.468680
  C 2.974998 0.072201 -1.116012
  C 2.338859 0.177652 -2.467341
  H 1.252889 0.247437 -2.399708
  H 4.040089 -0.036689 -1.111005
  H 0.472231 0.321620 1.269846
  H 1.477687 -0.690299 -0.015811
  H 0.296653 0.817482 -0.477342
  H 3.794621 0.915832 1.374662
  H 3.928966 -0.820006 1.205803
  H 1.922377 -1.110577 2.690356
  H 1.862360 0.650655 2.896467
  H 2.584122 -0.686437 -3.073252
  H 2.705771 1.064276 -3.005753
 18
 71.148893
  C 0.862391 0.329332 0.276845
  C 2.311443 0.070732 0.079230
  C 3.224993 -0.004453 1.346697
  C 2.509166 -0.196950 2.676882
  H 3.251250 -0.266008 3.479193
  C 2.978152 0.068534 -1.115403
  C 2.337870 0.179056 -2.472327
  H 1.246567 0.246072 -2.403298
  H 4.052415 -0.043577 -1.109412
  H 0.464191 0.369782 1.271584
  H 1.534785 -0.696090 0.029205
  H 0.292348 0.774443 -0.507711
  H 3.794548 0.917152 1.375952
  H 3.927587 -0.817316 1.199938
  H 1.923459 -1.110115 2.682267
  H 1.861908 0.638238 2.899709
  H 2.586673 -0.687235 -3.086675
  H 2.702131 1.069740 -3.007445
 18
 74.556105
  C 0.859381 0.360221 0.278196
  C 2.304878 0.064821 0.079549
  C 3.233876 -0.005666 1.355369
  C 2.518196 -0.203514 2.677600
  H 3.248158 -0.277517 3.468973
  C 2.974858 0.067226 -1.121839
  C 2.340542 0.178232 -2.471424
  H 1.264450 0.237572 -2.405938
  H 4.044832 -0.043854 -1.116342
  H 0.457485 0.412537 1.261148
  H 1.570303 -0.708526 0.063258
  H 0.273097 0.743939 -0.533872
  H 3.801058 0.921515 1.384918
  H 3.946899 -0.827613 1.200871
  H 1.923084 -1.127574 2.676202
  H 1.869448 0.635662 2.905037
  H 2.596506 -0.683934 -3.092330
  H 2.697061 1.066760 -2.994436
 18
 77.495497
  C 0.864757 0.392949 0.279643
  C 2.301792 0.057259 0.083960
  C 3.232644 -0.008362 1.354369
  C 2.519712 -0.214508 2.675901
  H 3.262175 -0.295379 3.481324
  C 2.975715 0.063018 -1.123226
  C 2.344666 0.175032 -2.472278
  H 1.261090 0.231458 -2.408103
  H 4.049008 -0.053424 -1.114954
  H 0.452141 0.440319 1.258479
  H 1.609157 -0.723464 0.087501
  H 0.270454 0.721781 -0.549912
  H 3.798319 0.923448 1.386498
  H 3.936043 -0.814417 1.197587
  H 1.929252 -1.128343 2.668907
  H 1.874321 0.619646 2.906842
  H 2.607501 -0.694503 -3.103434
  H 2.702709 1.076758 -2.996659
 18
 78.568095
  C 0.875345 0.455060 0.275441
  C 2.296008 0.040308 0.082120
  C 3.241209 -0.009113 1.359467
  C 2.528256 -0.223383 2.684208
  H 3.262351 -0.306437 3.478567
  C 2.980174 0.052503 -1.128659
  C 2.350854 0.175681 -2.480465
  H 1.263887 0.228572 -2.418689
  H 4.049337 -0.081171 -1.115535
  H 0.435113 0.462500 1.248601
  H 1.639524 -0.765853 0.106108
  H 0.260131 0.693187 -0.563211
  H 3.795751 0.930603 1.388793
  H 3.953361 -0.811643 1.199121
  H 1.941384 -1.136584 2.673707
  H 1.874343 0.615612 2.922217
  H 2.615856 -0.673417 -3.112644
  H 2.702926 1.073472 -2.990021
 18
 80.369290
  C 0.887171 0.495410 0.274469
  C 2.294824 0.030511 0.087364
  C 3.237762 -0.007686 1.357410
  C 2.526132 -0.229284 2.681174
  H 3.264780 -0.311005 3.482225
  C 2.979956 0.045014 -1.134149
  C 2.352743 0.169678 -2.475499
  H 1.270046 0.218880 -2.413202
  H 4.049192 -0.095854 -1.121172
  H 0.431245 0.468879 1.248533
  H 1.678728 -0.785732 0.110972
  H 0.275051 0.693614 -0.569733
  H 3.779293 0.928993 1.389622
  H 3.967210 -0.812978 1.196912
  H 1.944275 -1.145330 2.667132
  H 1.875814 0.593670 2.916926
  H 2.622103 -0.675911 -3.113064
  H 2.699262 1.064878 -2.977082
 18
 79.787504
  C 0.907534 0.570774 0.276437
  C 2.282217 0.013825 0.094162
  C 3.238358 -0.010105 1.362599
  C 2.535147 -0.246740 2.684406
  H 3.275600 -0.327016 3.480794
  C 2.981341 0.032058 -1.132590
  C 2.354758 0.152459 -2.475734
  H 1.271798 0.176147 -2.414045
  H 4.050148 -0.113567 -1.114107
  H 0.419914 0.471006 1.227506
  H 1.708184 -0.835488 0.108954
  H 0.288682 0.730774 -0.578764
  H 3.767451 0.940972 1.393871
  H 3.975960 -0.801728 1.195304
  H 1.959441 -1.170745 2.665182
  H 1.874504 0.572125 2.927176
  H 2.645045 -0.679232 -3.118298
  H 2.682239 1.066816 -2.973326
