 23
 0.000000
  C 0.976265 0.171673 0.478282
  C 2.435112 0.124288 0.359941
  H 3.047879 0.455945 1.185342
  C 3.028460 -0.338804 -0.793460
  C 4.408209 -0.415869 -0.985710
  C 5.104977 -0.866200 -2.108143
  C 4.620846 -1.389366 -3.412004
  C 3.135215 -1.515029 -3.725850
  C 2.946892 -2.079288 -5.132051
  O 6.419899 -0.854647 -2.079616
  H 0.641998 0.556599 1.436625
  H 0.556468 -0.825941 0.334236
  H 0.556187 0.792343 -0.315796
  H 2.375472 -0.658228 -1.588644
  H 5.017733 -0.081255 -0.152538
  H 5.087367 -2.374155 -3.533105
  H 5.087742 -0.761743 -4.180242
  H 2.653220 -0.537919 -3.682466
  H 2.652902 -2.190973 -3.019117
  H 3.397103 -1.428586 -5.877927
  H 1.888310 -2.170935 -5.360961
  H 3.396847 -3.065207 -5.221168
  H 6.804591 -0.520998 -1.246587
 23
 12.649917
  C 1.031212 0.102220 0.305373
  C 2.482308 0.092279 0.280394
  H 3.012055 0.443065 1.153778
  C 3.214199 -0.348359 -0.816898
  C 4.570750 -0.351959 -0.825712
  C 5.033868 -0.818688 -1.988811
  C 4.469323 -1.333959 -3.272933
  C 2.999664 -1.485755 -3.653752
  C 2.914258 -2.054481 -5.070400
  O 6.377117 -0.880956 -2.145253
  H 0.632946 0.476820 1.238172
  H 0.645300 -0.899985 0.119883
  H 0.645134 0.697703 -0.521763
  H 2.632843 -0.693622 -1.676492
  H 5.184244 -0.022684 -0.004725
  H 4.946214 -2.315139 -3.396387
  H 4.946353 -0.711577 -4.041049
  H 2.489486 -0.522075 -3.654717
  H 2.488556 -2.181872 -2.987867
  H 3.394728 -1.392919 -5.787275
  H 1.875120 -2.172029 -5.365415
  H 3.393186 -3.028684 -5.130581
  H 6.877510 -0.568341 -1.370264
 23
 41.951186
  C 1.070477 0.014385 0.087402
  C 2.518354 0.061935 0.201547
  H 2.945523 0.432866 1.122342
  C 3.378231 -0.349743 -0.822838
  C 4.728017 -0.298940 -0.697575
  C 4.990469 -0.781241 -1.895562
  C 4.376374 -1.293224 -3.170210
  C 2.907492 -1.447840 -3.556274
  C 2.840242 -2.016194 -4.977037
  O 6.374421 -0.905176 -2.201176
  H 0.569048 0.372049 0.976235
  H 0.742765 -1.000165 -0.134012
  H 0.740957 0.590931 -0.775585
  H 2.868398 -0.702268 -1.699650
  H 5.352211 0.025106 0.107944
  H 4.849919 -2.275257 -3.300063
  H 4.850888 -0.673960 -3.942950
  H 2.387937 -0.488357 -3.566530
  H 2.388617 -2.149577 -2.901997
  H 3.324892 -1.350874 -5.688868
  H 1.804498 -2.137926 -5.281635
  H 3.324676 -2.988747 -5.034076
  H 6.938245 -0.616133 -1.480729
 23
 78.792527
  C 1.090761 -0.028496 -0.018776
  C 2.540158 0.040938 0.152134
  H 2.923887 0.418254 1.090200
  C 3.449607 -0.359437 -0.844889
  C 4.803691 -0.274029 -0.633396
  C 4.908183 -0.760987 -1.844561
  C 4.330530 -1.274874 -3.125239
  C 2.876363 -1.427172 -3.509430
  C 2.811208 -1.998791 -4.931017
  O 6.385492 -0.923638 -2.249510
  H 0.549611 0.321691 0.852079
  H 0.784459 -1.046778 -0.251897
  H 0.783316 0.543716 -0.892284
  H 2.927685 -0.704477 -1.702449
  H 5.437906 0.045625 0.164344
  H 4.805984 -2.248260 -3.248232
  H 4.808352 -0.657681 -3.888357
  H 2.357397 -0.466109 -3.521028
  H 2.355726 -2.126167 -2.854083
  H 3.300326 -1.331935 -5.647027
  H 1.771641 -2.120227 -5.237675
  H 3.297310 -2.977367 -4.985483
  H 6.976411 -0.638423 -1.545470
 23
 113.986228
  C 1.096978 -0.027966 -0.019853
  C 2.542498 0.038813 0.146864
  H 2.928406 0.414535 1.084013
  C 3.450588 -0.362967 -0.854936
  C 4.826085 -0.259599 -0.598990
  C 4.798896 -0.746865 -1.810830
  C 4.321941 -1.268581 -3.110057
  C 2.854820 -1.435411 -3.525455
  C 2.810021 -2.004581 -4.946427
  O 6.453361 -0.940122 -2.288760
  H 0.563903 0.323449 0.855290
  H 0.782323 -1.048838 -0.251726
  H 0.782097 0.548768 -0.893412
  H 2.877390 -0.701435 -1.700150
  H 5.465200 0.055296 0.187233
  H 4.822757 -2.234659 -3.215203
  H 4.822958 -0.643752 -3.853992
  H 2.329727 -0.478115 -3.545686
  H 2.330138 -2.142162 -2.879186
  H 3.303503 -1.334471 -5.653587
  H 1.775582 -2.132609 -5.266873
  H 3.303099 -2.977842 -4.995833
  H 7.034652 -0.653366 -1.579604
 23
 135.334807
  C 1.042277 -0.011247 0.058174
  C 2.518796 0.057184 0.167466
  H 2.942964 0.462460 1.077716
  C 3.354216 -0.369416 -0.836220
  C 4.799750 -0.230485 -0.620089
  C 4.639512 -0.776159 -1.793716
  C 4.308656 -1.287861 -3.111060
  C 2.867955 -1.455215 -3.580120
  C 2.860438 -2.003638 -5.000739
  O 6.640182 -1.011715 -2.360463
  H 0.564023 0.374786 0.952649
  H 0.705062 -1.039960 -0.107426
  H 0.682598 0.555215 -0.807309
  H 2.722401 -0.733682 -1.646357
  H 5.467395 0.123049 0.133859
  H 4.834710 -2.245499 -3.191386
  H 4.851080 -0.648956 -3.816174
  H 2.351293 -0.491616 -3.594272
  H 2.331441 -2.162735 -2.940233
  H 3.368659 -1.330590 -5.680544
  H 1.839320 -2.125786 -5.349320
  H 3.349178 -2.968563 -5.048422
  H 7.238959 -0.710001 -1.668353
 23
 129.203085
  C 0.929036 0.109553 0.354490
  C 2.407584 0.107266 0.295429
  H 2.936335 0.481330 1.159031
  C 3.084699 -0.347407 -0.782510
  C 4.645433 -0.267684 -0.691627
  C 4.361598 -0.785581 -1.808676
  C 4.290735 -1.298438 -3.136979
  C 2.904075 -1.513558 -3.746029
  C 3.016723 -2.067780 -5.159077
  O 7.087487 -1.072662 -2.543938
  H 0.583128 0.511346 1.299736
  H 0.531757 -0.897983 0.234568
  H 0.504120 0.703166 -0.454266
  H 2.403997 -0.689931 -1.576183
  H 5.260932 0.096185 0.093944
  H 4.862214 -2.238564 -3.136065
  H 4.897428 -0.629125 -3.762481
  H 2.364803 -0.563325 -3.790908
  H 2.339732 -2.233965 -3.145628
  H 3.558033 -1.384831 -5.806667
  H 2.013510 -2.221878 -5.585202
  H 3.535502 -3.032086 -5.163418
  H 7.777428 -0.792387 -1.939837
 23
 122.089644
  C 0.857421 0.172387 0.538575
  C 2.329848 0.154792 0.414372
  H 2.907191 0.529211 1.246962
  C 2.949351 -0.309322 -0.690055
  C 4.460251 -0.258083 -0.732297
  C 4.336144 -0.809500 -1.868133
  C 4.315726 -1.326742 -3.169694
  C 2.950042 -1.550033 -3.838513
  C 3.117215 -2.098854 -5.247842
  O 7.275770 -1.126795 -2.666463
  H 0.557686 0.582372 1.496887
  H 0.446310 -0.832414 0.439195
  H 0.404770 0.766095 -0.255790
  H 2.286217 -0.654430 -1.479835
  H 5.058000 0.120378 0.063998
  H 4.882535 -2.270352 -3.145422
  H 4.929390 -0.642539 -3.776858
  H 2.411198 -0.602499 -3.892619
  H 2.367102 -2.261604 -3.251348
  H 3.680124 -1.410443 -5.873116
  H 2.143262 -2.249331 -5.705763
  H 3.637029 -3.053457 -5.239823
  H 8.042224 -0.879340 -2.144882
