17

H 1.3656496529555013 0.1412940619428168 0.4034540887870846
C 2.435627 0.138812 0.396949
C 3.229471 0.606512 1.560312
C 2.462344 1.09865 2.784948
H 3.1375788958583106 1.408205136786465 3.5550995777457897
C 3.047724 -0.326485 -0.761128
C 4.42768 -0.41035 -0.97058
C 5.111749 -0.860636 -2.093538
H 4.760336608876776 -1.2367689294526145 -3.0315856271205277
O 6.434575 -0.852273 -2.073085
H 3.886571 1.416144 1.22287
H 3.886751 -0.211308 1.877002
H 1.825548 0.303651 3.177702
H 1.82548 1.944269 2.51835
H 2.388559 -0.643775 -1.55069
H 5.047217 -0.079018 -0.145404
H 6.800018 -0.516405 -1.234749
