 17
 0.000000
  C 0.973891 0.131063 0.377809
  C 2.431024 0.084913 0.264865
  H 3.022684 0.421665 1.103164
  C 3.071592 -0.367436 -0.860631
  C 4.463375 -0.406622 -0.959786
  C 5.189664 -0.850430 -2.067768
  C 4.597592 -1.353874 -3.323009
  H 3.518624 -1.354210 -3.323639
  O 6.494380 -0.846191 -2.059630
  H 0.645632 0.516555 1.336638
  H 0.551102 -0.864526 0.224698
  H 0.552220 0.744596 -0.421694
  H 2.467755 -0.700728 -1.689845
  H 5.025789 -0.061565 -0.101261
  H 4.968837 -2.362946 -3.509871
  H 4.968767 -0.753476 -4.155320
  H 6.908056 -0.517848 -1.240355
 17
 9.213539
  C 0.961261 0.136499 0.390691
  C 2.414343 0.085687 0.267554
  H 3.014054 0.420997 1.102902
  C 3.046723 -0.369610 -0.865140
  C 4.440440 -0.411779 -0.971529
  C 5.150476 -0.853516 -2.075124
  C 4.588755 -1.355557 -3.326803
  H 3.508201 -1.361232 -3.339762
  O 6.614415 -0.844179 -2.056154
  H 0.640416 0.523029 1.352028
  H 0.533957 -0.857697 0.238424
  H 0.535774 0.750098 -0.407246
  H 2.435815 -0.701543 -1.691626
  H 5.008201 -0.067833 -0.115207
  H 4.968900 -2.362565 -3.509315
  H 4.968254 -0.753180 -4.154446
  H 7.001795 -0.513247 -1.231589
 17
 27.082279
  C 0.940945 0.157296 0.432737
  C 2.394468 0.096879 0.290868
  H 3.009813 0.429798 1.121180
  C 3.021561 -0.371577 -0.871541
  C 4.421506 -0.420418 -0.991056
  C 5.080587 -0.864912 -2.101562
  C 4.615490 -1.373401 -3.371139
  H 3.531249 -1.397757 -3.432059
  O 6.702677 -0.838713 -2.040742
  H 0.635604 0.537750 1.401949
  H 0.507566 -0.836156 0.289754
  H 0.501533 0.767728 -0.360789
  H 2.400324 -0.702395 -1.697068
  H 5.001339 -0.081058 -0.143975
  H 5.026541 -2.369204 -3.539611
  H 5.026175 -0.768795 -4.180150
  H 6.990205 -0.494898 -1.185039
 17
 46.529646
  C 0.938112 0.159716 0.441738
  C 2.384014 0.095428 0.289432
  H 3.005653 0.424327 1.108637
  C 2.988303 -0.366865 -0.857471
  C 4.402074 -0.421350 -0.991532
  C 5.018351 -0.871561 -2.117794
  C 4.611328 -1.374125 -3.373515
  H 3.530716 -1.407356 -3.455337
  O 6.799278 -0.838793 -2.043331
  H 0.639454 0.545422 1.410406
  H 0.497006 -0.832793 0.296551
  H 0.495169 0.769086 -0.352449
  H 2.365980 -0.694351 -1.674400
  H 4.998147 -0.084883 -0.151285
  H 5.040739 -2.372022 -3.534055
  H 5.039838 -0.761807 -4.178198
  H 7.028740 -0.491687 -1.179133
 17
 64.646481
  C 0.932340 0.169360 0.472370
  C 2.378571 0.100299 0.301478
  H 3.011937 0.427034 1.111413
  C 2.964692 -0.363579 -0.850127
  C 4.371002 -0.423437 -1.001351
  C 4.942293 -0.876647 -2.133845
  C 4.617362 -1.387530 -3.408973
  H 3.540313 -1.440615 -3.540642
  O 6.880481 -0.829440 -2.019440
  H 0.641653 0.560290 1.440918
  H 0.483528 -0.819781 0.320983
  H 0.482486 0.773413 -0.324443
  H 2.338252 -0.690633 -1.661608
  H 4.978733 -0.090071 -0.171004
  H 5.072554 -2.378592 -3.550285
  H 5.072356 -0.768251 -4.195666
  H 7.048091 -0.478353 -1.133718
 17
 80.982182
  C 0.920301 0.172864 0.480690
  C 2.361970 0.101723 0.305767
  H 3.000480 0.428713 1.116525
  C 2.943867 -0.364214 -0.850457
  C 4.347521 -0.426177 -1.006825
  C 4.905905 -0.879027 -2.139247
  C 4.603423 -1.390403 -3.415939
  H 3.523028 -1.449201 -3.560838
  O 7.002491 -0.823574 -2.007072
  H 0.633739 0.564286 1.449614
  H 0.469983 -0.813111 0.330133
  H 0.469736 0.775758 -0.313269
  H 2.312336 -0.692304 -1.664928
  H 4.958620 -0.094400 -0.180135
  H 5.062374 -2.375021 -3.551887
  H 5.061561 -0.771500 -4.194201
  H 7.155457 -0.475060 -1.126420
 17
 94.249929
  C 0.902504 0.180188 0.498228
  C 2.347380 0.102525 0.309374
  H 2.993847 0.425983 1.112403
  C 2.914588 -0.364607 -0.849371
  C 4.327218 -0.433292 -1.021868
  C 4.857425 -0.885342 -2.153605
  C 4.598793 -1.395538 -3.428060
  H 3.521787 -1.463713 -3.594589
  O 7.111833 -0.818031 -1.997284
  H 0.626319 0.573328 1.470285
  H 0.444557 -0.804441 0.349818
  H 0.445950 0.785333 -0.293007
  H 2.278218 -0.689294 -1.656689
  H 4.950013 -0.104083 -0.200959
  H 5.068497 -2.379774 -3.555171
  H 5.066563 -0.769766 -4.199484
  H 7.243293 -0.464569 -1.103934
 17
 102.834800
  C 0.899329 0.197550 0.544054
  C 2.331032 0.106327 0.315825
  H 3.001904 0.425438 1.106099
  C 2.853889 -0.365229 -0.855180
  C 4.263509 -0.450010 -1.068443
  C 4.762099 -0.901379 -2.195625
  C 4.642393 -1.411388 -3.467865
  H 3.578059 -1.511840 -3.716807
  O 7.167548 -0.800640 -1.948810
  H 0.660963 0.593493 1.525279
  H 0.430160 -0.780060 0.415237
  H 0.427821 0.810035 -0.228598
  H 2.193067 -0.686652 -1.651985
  H 4.900677 -0.124530 -0.257748
  H 5.132893 -2.380463 -3.556323
  H 5.132312 -0.771493 -4.201158
  H 7.281058 -0.447491 -1.054693
 17
 107.167763
  C 0.880482 0.221850 0.600885
  C 2.313972 0.108718 0.326201
  H 3.008062 0.419273 1.097638
  C 2.789492 -0.367061 -0.853489
  C 4.197534 -0.470802 -1.113277
  C 4.672572 -0.919378 -2.236962
  C 4.697528 -1.432697 -3.520689
  H 3.658610 -1.567885 -3.853753
  O 7.225193 -0.775702 -1.894245
  H 0.684157 0.619885 1.585776
  H 0.395575 -0.747533 0.494958
  H 0.396638 0.845311 -0.150275
  H 2.104738 -0.679875 -1.632209
  H 4.850746 -0.150894 -0.315891
  H 5.210854 -2.397627 -3.567462
  H 5.208124 -0.764529 -4.220471
  H 7.348753 -0.430895 -1.020746
 17
 108.840917
  C 0.872322 0.243317 0.650991
  C 2.297322 0.109363 0.330979
  H 3.014435 0.410063 1.081799
  C 2.726841 -0.371141 -0.859815
  C 4.129975 -0.496053 -1.169372
  C 4.585609 -0.942688 -2.290778
  C 4.743876 -1.446648 -3.554283
  H 3.735354 -1.614930 -3.968076
  O 7.282872 -0.755479 -1.853468
  H 0.715504 0.646627 1.648445
  H 0.368934 -0.724763 0.564571
  H 0.373825 0.881497 -0.084927
  H 2.020734 -0.673081 -1.614184
  H 4.809868 -0.181731 -0.382893
  H 5.277875 -2.404081 -3.558663
  H 5.273200 -0.752811 -4.217582
  H 7.430204 -0.407461 -0.972506
 17
 109.348376
  C 0.864683 0.254467 0.679362
  C 2.285524 0.110765 0.333778
  H 3.016814 0.407148 1.073881
  C 2.689850 -0.371446 -0.861790
  C 4.089031 -0.507090 -1.197877
  C 4.534149 -0.953836 -2.318670
  C 4.758011 -1.454058 -3.572242
  H 3.770423 -1.637889 -4.024543
  O 7.380692 -0.740471 -1.817206
  H 0.730143 0.656514 1.674148
  H 0.355897 -0.705981 0.604590
  H 0.359951 0.895252 -0.042962
  H 1.966942 -0.670524 -1.608369
  H 4.780202 -0.197370 -0.422837
  H 5.299395 -2.405063 -3.555053
  H 5.294841 -0.750430 -4.216095
  H 7.537263 -0.393417 -0.937777
 17
 109.427981
  C 0.861020 0.264693 0.705944
  C 2.274730 0.112416 0.336535
  H 3.018568 0.404796 1.065585
  C 2.655931 -0.372447 -0.865839
  C 4.046477 -0.517992 -1.227017
  C 4.482726 -0.965629 -2.348884
  C 4.770499 -1.460637 -3.588439
  H 3.802314 -1.660016 -4.079864
  O 7.477000 -0.725069 -1.778390
  H 0.746904 0.669241 1.706765
  H 0.344808 -0.695132 0.641843
  H 0.347715 0.911585 -0.008141
  H 1.922057 -0.667072 -1.599822
  H 4.752291 -0.211329 -0.460330
  H 5.318975 -2.407004 -3.549518
  H 5.314923 -0.746200 -4.213751
  H 7.641560 -0.379510 -0.901246
 17
 109.299939
  C 0.857292 0.274785 0.731551
  C 2.264578 0.113564 0.339019
  H 3.020783 0.401461 1.056755
  C 2.622873 -0.373047 -0.867931
  C 4.007322 -0.528799 -1.254195
  C 4.437061 -0.976620 -2.376075
  C 4.780700 -1.466587 -3.602869
  H 3.832483 -1.679045 -4.127476
  O 7.578777 -0.708701 -1.738342
  H 0.763082 0.679083 1.731758
  H 0.335180 -0.680693 0.677806
  H 0.337604 0.925481 0.027965
  H 1.874977 -0.663544 -1.591445
  H 4.727013 -0.226387 -0.497713
  H 5.333066 -2.409845 -3.545553
  H 5.329404 -0.742026 -4.212785
  H 7.753692 -0.363756 -0.861884
 17
 106.836795
  C 0.876343 0.349511 0.834167
  C 2.244589 0.131034 0.336304
  H 3.065880 0.439204 0.971415
  C 2.498168 -0.434138 -0.871796
  C 3.827019 -0.648174 -1.369228
  C 4.322383 -1.151461 -2.442758
  C 4.948913 -1.444889 -3.626701
  H 4.144073 -1.709933 -4.359587
  O 7.208819 -0.726296 -1.662133
  H 0.870147 0.811783 1.816303
  H 0.330505 -0.595133 0.876695
  H 0.312148 0.973270 0.137977
  H 1.685927 -0.746971 -1.514652
  H 4.658816 -0.338958 -0.715660
  H 5.616400 -2.315530 -3.555497
  H 5.495052 -0.587684 -4.040930
  H 7.750705 -0.430313 -0.925334
