8

H      0.844405   -0.482507    0.230887
N      1.482620    0.355820   -0.717792
C      2.442064    0.523888   -1.408383
O      3.253513    0.827603   -2.171992
O      3.614887    1.883242    0.768554
C      2.623550    2.577642    0.760403
O      1.487554    2.524791    0.325051
H      2.794052    3.596950    1.302726
