 20
 0.000000
  C 0.969583 0.053381 0.189688
  C 2.473054 0.053944 0.179677
  C 3.241866 -0.019409 1.479741
  C 2.427215 -0.092019 2.766447
  H 3.098877 -0.140184 3.620079
  C 3.110950 0.120299 -0.996249
  H 2.559628 0.172702 -1.924977
  C 4.542822 0.130346 -1.174243
  C 5.136990 0.197645 -2.367046
  O 6.478016 0.209482 -2.576782
  H 0.555502 -0.003073 1.190113
  H 0.587814 -0.800140 -0.369563
  H 0.587815 0.964399 -0.269993
  H 3.891554 0.859673 1.543399
  H 3.891557 -0.900071 1.444101
  H 1.796384 -0.978576 2.781527
  H 1.796378 0.787208 2.881168
  H 5.170178 0.080639 -0.293274
  H 4.603063 0.250512 -3.304000
  H 6.937706 0.161629 -1.728627
 20
 12.674521
  C 0.926339 0.055003 0.160925
  C 2.418228 0.055842 0.146055
  C 3.277373 -0.025837 1.593652
  C 2.426523 -0.096616 2.847911
  H 3.076011 -0.145806 3.719711
  C 3.124892 0.125662 -1.091284
  H 2.569048 0.177829 -2.015811
  C 4.552749 0.133858 -1.236484
  C 5.167343 0.200769 -2.422406
  O 6.510938 0.211525 -2.613012
  H 0.523026 -0.001744 1.166540
  H 0.542240 -0.797194 -0.399967
  H 0.542241 0.964892 -0.300534
  H 3.920126 0.853721 1.645259
  H 3.920131 -0.905615 1.545984
  H 1.794526 -0.982484 2.846164
  H 1.794517 0.783820 2.945839
  H 5.159447 0.083374 -0.341734
  H 4.643054 0.253958 -3.365057
  H 6.958698 0.163312 -1.758488
 20
 38.065436
  C 0.891543 0.057731 0.112656
  C 2.362485 0.062010 0.036812
  C 3.367299 -0.031645 1.696674
  C 2.462618 -0.099197 2.893900
  H 3.068639 -0.150286 3.799413
  C 3.113526 0.130549 -1.177853
  H 2.545212 0.182583 -2.100109
  C 4.526005 0.135786 -1.270585
  C 5.162431 0.200283 -2.413757
  O 6.506633 0.208783 -2.564297
  H 0.540710 -0.000362 1.142140
  H 0.484964 -0.796401 -0.435801
  H 0.484965 0.968138 -0.336228
  H 3.988237 0.857856 1.701991
  H 3.988361 -0.916245 1.601878
  H 1.829612 -0.985896 2.862132
  H 1.829563 0.785470 2.962097
  H 5.091477 0.084242 -0.356990
  H 4.660200 0.253956 -3.365076
  H 6.928572 0.159776 -1.695607
 20
 63.694099
  C 0.847489 0.058744 0.094571
  C 2.306649 0.067913 -0.067935
  C 3.455102 -0.038868 1.824321
  C 2.468946 -0.102226 2.946695
  H 3.001706 -0.155980 3.899579
  C 3.084731 0.134611 -1.249825
  H 2.548039 0.186738 -2.173300
  C 4.511327 0.138053 -1.311077
  C 5.191138 0.202864 -2.459596
  O 6.549058 0.209514 -2.577834
  H 0.565255 -0.000281 1.140412
  H 0.412076 -0.797029 -0.423905
  H 0.412071 0.967436 -0.324332
  H 4.038646 0.866228 1.775391
  H 4.038479 -0.932376 1.673982
  H 1.838734 -0.985015 2.870434
  H 1.838729 0.783451 2.970226
  H 5.047538 0.084760 -0.366965
  H 4.710411 0.257554 -3.428501
  H 6.953642 0.159364 -1.689380
 20
 85.400516
  C 0.818159 0.063008 0.019555
  C 2.250851 0.075466 -0.201287
  C 3.547003 -0.046735 1.964776
  C 2.517088 -0.106110 3.016323
  H 2.987536 -0.161738 4.002143
  C 3.028191 0.138704 -1.322521
  H 2.517629 0.193713 -2.298432
  C 4.466670 0.139861 -1.342453
  C 5.185742 0.203152 -2.464925
  O 6.544473 0.207221 -2.536385
  H 0.582837 0.003299 1.078070
  H 0.363708 -0.798311 -0.477771
  H 0.363714 0.974788 -0.377747
  H 4.113019 0.868757 1.889593
  H 4.113216 -0.948341 1.787032
  H 1.889745 -0.988778 2.903235
  H 1.889657 0.783724 3.003267
  H 4.963846 0.085753 -0.382292
  H 4.741583 0.258428 -3.445745
  H 6.914812 0.156730 -1.640404
 20
 99.855750
  C 0.774791 0.065018 -0.016488
  C 2.201765 0.081753 -0.312983
  C 3.645751 -0.053136 2.077423
  C 2.537601 -0.109238 3.071407
  H 2.934571 -0.166992 4.094227
  C 2.999145 0.143629 -1.409763
  H 2.546773 0.199153 -2.394124
  C 4.435055 0.142090 -1.382374
  C 5.190152 0.203948 -2.479028
  O 6.555180 0.205384 -2.504287
  H 0.600728 0.004297 1.059681
  H 0.295003 -0.794383 -0.481474
  H 0.295000 0.971262 -0.381849
  H 4.192111 0.872249 1.977087
  H 4.191982 -0.961245 1.873514
  H 1.914280 -0.990883 2.918534
  H 1.914350 0.784002 3.018739
  H 4.893919 0.087037 -0.406201
  H 4.779212 0.260249 -3.477268
  H 6.890642 0.154766 -1.606731
 20
 109.543208
  C 0.737953 0.067244 -0.056795
  C 2.139329 0.087813 -0.420078
  C 3.749164 -0.059893 2.198262
  C 2.580716 -0.110365 3.092078
  H 2.890310 -0.170309 4.152770
  C 2.949070 0.147741 -1.481694
  H 2.535280 0.204959 -2.496399
  C 4.392295 0.143613 -1.408090
  C 5.185401 0.203932 -2.477818
  O 6.546493 0.202512 -2.454864
  H 0.620589 0.005669 1.034508
  H 0.237305 -0.795482 -0.494790
  H 0.237218 0.973709 -0.394969
  H 4.284492 0.861414 2.102225
  H 4.284592 -0.964830 1.998769
  H 1.966075 -0.994644 2.886852
  H 1.966057 0.791609 2.987739
  H 4.814984 0.087452 -0.412678
  H 4.809717 0.261172 -3.492495
  H 6.851478 0.150881 -1.540022
 20
 114.959870
  C 0.686975 0.069532 -0.096644
  C 2.071214 0.093746 -0.526255
  C 3.868210 -0.066091 2.303038
  C 2.630988 -0.110839 3.097068
  H 2.843994 -0.171827 4.175393
  C 2.901227 0.151449 -1.549126
  H 2.532413 0.209190 -2.572696
  C 4.343450 0.144166 -1.419815
  C 5.177341 0.202694 -2.457477
  O 6.527169 0.198416 -2.380411
  H 0.628357 0.007809 0.997034
  H 0.162599 -0.800544 -0.508392
  H 0.162630 0.980457 -0.407883
  H 4.411150 0.863186 2.220193
  H 4.410088 -0.978866 2.115990
  H 2.031823 -0.990145 2.841028
  H 2.032037 0.792047 2.941717
  H 4.724268 0.087120 -0.407812
  H 4.840764 0.260871 -3.489233
  H 6.795007 0.146175 -1.453410
 20
 118.216444
  C 0.630008 0.071852 -0.136922
  C 1.989758 0.099065 -0.620883
  C 3.989955 -0.071065 2.391306
  C 2.694037 -0.110268 3.090433
  H 2.819722 -0.171463 4.172449
  C 2.853209 0.154809 -1.610607
  H 2.528583 0.213469 -2.651769
  C 4.287486 0.144242 -1.421676
  C 5.164275 0.200795 -2.424507
  O 6.512857 0.193709 -2.292543
  H 0.620916 0.009913 0.961802
  H 0.091980 -0.797525 -0.521591
  H 0.092076 0.979012 -0.421436
  H 4.532195 0.856050 2.322172
  H 4.531734 -0.984503 2.217758
  H 2.111744 -0.987089 2.790063
  H 2.112138 0.795218 2.890729
  H 4.626186 0.086271 -0.389840
  H 4.872880 0.258968 -3.458581
  H 6.743310 0.141098 -1.355583
 20
 120.179641
  C 0.558830 0.076159 -0.214528
  C 1.902215 0.105374 -0.732170
  C 4.116971 -0.075622 2.474586
  C 2.786420 -0.110896 3.104773
  H 2.855809 -0.173342 4.211416
  C 2.791473 0.158259 -1.669803
  H 2.519494 0.217977 -2.729842
  C 4.224852 0.144003 -1.414211
  C 5.145595 0.198144 -2.374421
  O 6.488733 0.187203 -2.180378
  H 0.578521 0.014339 0.881997
  H 0.010756 -0.796292 -0.587656
  H 0.010717 0.985023 -0.487222
  H 4.665221 0.841684 2.423074
  H 4.665607 -0.982099 2.319528
  H 2.223305 -0.979093 2.777535
  H 2.223921 0.788642 2.877373
  H 4.512696 0.085512 -0.375311
  H 4.899329 0.257351 -3.427455
  H 6.675935 0.134005 -1.235444
 20
 120.680794
  C 0.459302 0.081296 -0.305476
  C 1.815496 0.110124 -0.816175
  C 4.259955 -0.079767 2.545255
  C 2.909169 -0.112113 3.121070
  H 2.936690 -0.174612 4.226424
  C 2.746857 0.160781 -1.713837
  H 2.531058 0.221329 -2.787542
  C 4.160450 0.142729 -1.392675
  C 5.122593 0.194629 -2.312790
  O 6.453400 0.180320 -2.060294
  H 0.465606 0.020511 0.771813
  H -0.082892 -0.785382 -0.679026
  H -0.082902 0.984486 -0.579163
  H 4.810848 0.845855 2.508851
  H 4.810411 -0.995029 2.404456
  H 2.353163 -0.986303 2.766763
  H 2.353053 0.797245 2.867340
  H 4.407428 0.083118 -0.335604
  H 4.923846 0.254382 -3.373297
  H 6.598925 0.126590 -1.107594
 20
 121.224955
  C 0.358222 0.088679 -0.437171
  C 1.714441 0.114648 -0.895682
  C 4.430451 -0.081988 2.595265
  C 3.055157 -0.113096 3.146454
  H 3.056964 -0.174763 4.238095
  C 2.683364 0.162490 -1.743039
  H 2.512040 0.223121 -2.819519
  C 4.093837 0.140872 -1.355333
  C 5.095486 0.190135 -2.229394
  O 6.411625 0.172060 -1.916692
  H 0.325935 0.025979 0.675497
  H -0.176472 -0.790211 -0.839028
  H -0.176713 1.007119 -0.737790
  H 4.972075 0.837988 2.567858
  H 4.973188 -0.995114 2.463770
  H 2.510624 -0.976135 2.785376
  H 2.510919 0.784620 2.885088
  H 4.294654 0.081309 -0.299722
  H 4.944684 0.250250 -3.299437
  H 6.513289 0.117871 -0.956970
 20
 121.016080
  C 0.223255 0.096792 -0.581647
  C 1.617204 0.118585 -0.966308
  C 4.615147 -0.084158 2.624683
  C 3.246657 -0.114433 3.159800
  H 3.242981 -0.176849 4.260021
  C 2.632651 0.163810 -1.766357
  H 2.518306 0.225173 -2.853070
  C 4.012052 0.137877 -1.305097
  C 5.060997 0.184108 -2.124004
  O 6.358804 0.161803 -1.738423
  H 0.125679 0.035904 0.496642
  H -0.285688 -0.767522 -1.006778
  H -0.285870 1.003492 -0.906833
  H 5.159841 0.843781 2.596516
  H 5.158800 -1.001963 2.491645
  H 2.699950 -0.985969 2.789757
  H 2.699488 0.794246 2.890414
  H 4.158465 0.077524 -0.238756
  H 4.969424 0.244692 -3.198293
  H 6.406909 0.107221 -0.775186
 20
 120.906920
  C 0.092969 0.106642 -0.768583
  C 1.514605 0.122196 -1.030018
  C 4.842626 -0.081583 2.620803
  C 3.469315 -0.113306 3.174900
  H 3.477558 -0.175643 4.272113
  C 2.567816 0.164955 -1.777044
  H 2.501681 0.226813 -2.870925
  C 3.920841 0.135986 -1.243259
  C 5.013670 0.178910 -2.000878
  O 6.282904 0.149263 -1.539107
  H -0.099413 0.045472 0.313822
  H -0.384638 -0.764624 -1.241726
  H -0.386025 1.025295 -1.140937
  H 5.378978 0.837563 2.583102
  H 5.387109 -1.003102 2.476858
  H 2.921651 -0.979594 2.814111
  H 2.919816 0.788784 2.914227
  H 4.012689 0.073704 -0.156679
  H 4.985633 0.239236 -3.083596
  H 6.271893 0.093552 -0.574250
