 26
 0.000000
  C 1.002617 0.121544 0.353940
  C 2.477876 0.132228 0.380784
  C 3.240116 0.606292 1.560206
  C 2.442267 1.091603 2.767305
  C 3.379916 1.540354 3.884200
  C 3.128487 -0.326112 -0.759783
  C 4.509744 -0.397614 -0.938630
  C 5.153971 -0.855274 -2.080478
  C 4.546137 -1.355925 -3.328636
  H 3.467393 -1.369779 -3.362842
  O 6.470139 -0.873047 -2.126234
  H 0.551818 0.488955 1.267785
  H 0.643066 -0.892402 0.173038
  H 0.643146 0.728246 -0.478386
  H 3.898763 1.420435 1.237568
  H 3.898619 -0.204727 1.890846
  H 1.804646 0.291223 3.146751
  H 1.804913 1.932163 2.487206
  H 4.015469 0.721040 4.212842
  H 2.807218 1.885055 4.741650
  H 4.015764 2.359026 3.554468
  H 2.498263 -0.653253 -1.574245
  H 5.148362 -0.071592 -0.126427
  H 4.927394 -2.362417 -3.507573
  H 4.927283 -0.751993 -4.153501
  H 6.904434 -0.548134 -1.315505
 26
 -0.348363
  C 1.014177 0.107660 0.344446
  C 2.486659 0.120973 0.374764
  C 3.239976 0.600753 1.552342
  C 2.433081 1.093670 2.757734
  C 3.369685 1.551019 3.876945
  C 3.146115 -0.338722 -0.761588
  C 4.528463 -0.406631 -0.926847
  C 5.181348 -0.861417 -2.069213
  C 4.524130 -1.328874 -3.310392
  H 3.440077 -1.319529 -3.253492
  O 6.492972 -0.898358 -2.124554
  H 0.561931 0.469702 1.262780
  H 0.656917 -0.905037 0.146374
  H 0.657098 0.713641 -0.489274
  H 3.902763 1.411518 1.229406
  H 3.900746 -0.205615 1.889302
  H 1.796575 0.292980 3.140508
  H 1.796338 1.933848 2.469454
  H 4.005668 0.733016 4.212095
  H 2.795570 1.901261 4.732593
  H 4.007412 2.369752 3.542537
  H 2.517738 -0.669766 -1.577426
  H 5.156469 -0.080410 -0.108112
  H 4.872196 -2.334662 -3.539733
  H 4.852514 -0.702518 -4.141241
  H 6.948216 -0.591423 -1.320792
 26
 -0.371957
  C 1.009651 0.109314 0.341096
  C 2.484610 0.120055 0.373776
  C 3.240029 0.601015 1.554199
  C 2.436365 1.095877 2.755117
  C 3.373013 1.553257 3.871528
  C 3.143946 -0.340758 -0.761101
  C 4.526064 -0.412400 -0.924004
  C 5.180384 -0.868887 -2.065653
  C 4.524369 -1.327920 -3.308571
  H 3.446182 -1.359257 -3.236467
  O 6.490255 -0.911571 -2.118320
  H 0.557575 0.460320 1.260064
  H 0.650577 -0.898909 0.128995
  H 0.655616 0.725539 -0.484848
  H 3.905348 1.411320 1.230940
  H 3.899754 -0.206692 1.893628
  H 1.799495 0.297034 3.139377
  H 1.802391 1.934823 2.465594
  H 4.007475 0.734638 4.208654
  H 2.800992 1.905966 4.724501
  H 4.010550 2.367860 3.536035
  H 2.515382 -0.671346 -1.576914
  H 5.152967 -0.083743 -0.106265
  H 4.906362 -2.312895 -3.570822
  H 4.815129 -0.665676 -4.125274
  H 6.945967 -0.606317 -1.312048
 26
 -0.379349
  C 1.010404 0.106169 0.341862
  C 2.485574 0.116826 0.374126
  C 3.241213 0.599411 1.553406
  C 2.438344 1.098733 2.752192
  C 3.374847 1.557681 3.866445
  C 3.144711 -0.345554 -0.759950
  C 4.526971 -0.418311 -0.923232
  C 5.180237 -0.876770 -2.064467
  C 4.523964 -1.319470 -3.312425
  H 3.448201 -1.384735 -3.229533
  O 6.489909 -0.930816 -2.113560
  H 0.558778 0.455467 1.261979
  H 0.650770 -0.902464 0.127859
  H 0.655527 0.725754 -0.483780
  H 3.907277 1.406580 1.228722
  H 3.899107 -0.207821 1.894781
  H 1.800658 0.302160 3.138927
  H 1.805647 1.937940 2.460272
  H 4.006705 0.740337 4.205551
  H 2.803002 1.914252 4.718711
  H 4.014002 2.370039 3.528317
  H 2.517301 -0.677194 -1.573960
  H 5.154555 -0.085340 -0.107741
  H 4.933557 -2.283642 -3.609955
  H 4.782681 -0.623747 -4.109996
  H 6.945909 -0.637544 -1.302456
 26
 -0.363304
  C 1.009345 0.096393 0.344984
  C 2.486163 0.109709 0.376243
  C 3.242999 0.599955 1.552991
  C 2.442603 1.101792 2.746776
  C 3.378709 1.565865 3.856677
  C 3.145246 -0.357874 -0.755790
  C 4.527566 -0.429579 -0.919789
  C 5.180802 -0.886817 -2.061680
  C 4.525181 -1.298078 -3.320694
  H 3.451466 -1.379389 -3.235590
  O 6.489659 -0.956450 -2.105177
  H 0.558913 0.448933 1.261756
  H 0.651508 -0.912484 0.136987
  H 0.652332 0.711951 -0.483437
  H 3.906666 1.407747 1.223343
  H 3.903228 -0.204940 1.897803
  H 1.806416 0.306166 3.136785
  H 1.808620 1.938819 2.451538
  H 4.012139 0.750260 4.198393
  H 2.807882 1.924521 4.707224
  H 4.017084 2.378091 3.514182
  H 2.519587 -0.694865 -1.564898
  H 5.155576 -0.098597 -0.103968
  H 4.946818 -2.245640 -3.652660
  H 4.769930 -0.571043 -4.095531
  H 6.944926 -0.683790 -1.286785
 26
 -0.404631
  C 1.017066 0.009388 0.368852
  C 2.492078 0.075226 0.384071
  C 3.241303 0.627249 1.536313
  C 2.433155 1.133151 2.728863
  C 3.363383 1.660771 3.817312
  C 3.156071 -0.402283 -0.740658
  C 4.538219 -0.435873 -0.915170
  C 5.193442 -0.893078 -2.056237
  C 4.536701 -1.345280 -3.297646
  H 3.475645 -1.515538 -3.180194
  O 6.503579 -0.915787 -2.117355
  H 0.561076 0.386379 1.276996
  H 0.693718 -1.020082 0.208210
  H 0.631507 0.573916 -0.480848
  H 3.870526 1.449301 1.175453
  H 3.934953 -0.139988 1.894680
  H 1.829697 0.324501 3.147548
  H 1.765786 1.938516 2.419079
  H 4.026337 0.879286 4.174448
  H 2.787529 2.024488 4.664221
  H 3.969183 2.482716 3.446845
  H 2.532966 -0.782370 -1.536996
  H 5.163758 -0.069401 -0.113523
  H 5.022848 -2.247474 -3.653094
  H 4.693782 -0.589804 -4.071549
  H 6.960203 -0.608548 -1.312271
 26
 -0.310361
  C 1.016362 0.075902 0.347193
  C 2.491068 0.095199 0.375710
  C 3.247484 0.602750 1.544453
  C 2.445636 1.115798 2.737380
  C 3.383118 1.588740 3.845480
  C 3.149717 -0.383866 -0.751654
  C 4.531575 -0.465342 -0.912242
  C 5.183277 -0.915458 -2.058106
  C 4.529848 -1.249933 -3.341056
  H 3.455429 -1.352065 -3.258497
  O 6.489478 -1.026742 -2.090138
  H 0.565598 0.467945 1.248223
  H 0.663352 -0.944462 0.187597
  H 0.654756 0.649044 -0.509337
  H 3.906714 1.408662 1.203283
  H 3.912961 -0.194288 1.896932
  H 1.809721 0.324525 3.133198
  H 1.811774 1.951491 2.435735
  H 4.014542 0.774128 4.196260
  H 2.811250 1.958218 4.693427
  H 4.024270 2.396256 3.495660
  H 2.522195 -0.731683 -1.559180
  H 5.161733 -0.142363 -0.094727
  H 4.965235 -2.163792 -3.742041
  H 4.757010 -0.462435 -4.061257
  H 6.943812 -0.801849 -1.256647
 26
 -0.228962
  C 1.019346 0.067762 0.348129
  C 2.493262 0.084425 0.376546
  C 3.250691 0.600095 1.542866
  C 2.448374 1.122445 2.731340
  C 3.385681 1.597908 3.839352
  C 3.151107 -0.404220 -0.746391
  C 4.533133 -0.487324 -0.907992
  C 5.182713 -0.930369 -2.058584
  C 4.530723 -1.217644 -3.352692
  H 3.455089 -1.322876 -3.274179
  O 6.487190 -1.060415 -2.087263
  H 0.568665 0.483395 1.240724
  H 0.665225 -0.955804 0.215314
  H 0.659040 0.617688 -0.520794
  H 3.912124 1.403912 1.195809
  H 3.914480 -0.195008 1.901315
  H 1.808196 0.335894 3.129713
  H 1.818494 1.959711 2.423938
  H 4.014748 0.782133 4.195533
  H 2.813292 1.973619 4.684702
  H 4.030871 2.402455 3.485962
  H 2.522957 -0.759698 -1.551906
  H 5.164330 -0.166921 -0.090637
  H 4.967910 -2.115724 -3.790280
  H 4.756428 -0.402098 -4.040734
  H 6.941438 -0.864069 -1.246390
 26
 -0.112323
  C 1.020873 0.059769 0.348297
  C 2.493744 0.071345 0.378244
  C 3.252181 0.595870 1.539531
  C 2.451770 1.134447 2.722011
  C 3.389856 1.612926 3.826151
  C 3.150934 -0.434670 -0.737776
  C 4.532645 -0.516870 -0.899793
  C 5.180678 -0.949918 -2.054287
  C 4.533767 -1.180741 -3.362745
  H 3.455123 -1.269674 -3.295670
  O 6.483412 -1.098828 -2.080105
  H 0.571492 0.500442 1.227340
  H 0.663414 -0.967167 0.244201
  H 0.662143 0.587234 -0.538373
  H 3.917950 1.392682 1.185116
  H 3.912496 -0.199034 1.907261
  H 1.804978 0.355205 3.127136
  H 1.829042 1.972232 2.406567
  H 4.011949 0.796424 4.190383
  H 2.818801 2.000358 4.667109
  H 4.040492 2.408737 3.467106
  H 2.522057 -0.807306 -1.535996
  H 5.166553 -0.194307 -0.084365
  H 4.958396 -2.067754 -3.829021
  H 4.777901 -0.342476 -4.017518
  H 6.936310 -0.939041 -1.230919
 26
 0.157000
  C 1.013981 0.066282 0.343853
  C 2.492780 0.065110 0.376415
  C 3.252153 0.582799 1.537180
  C 2.454231 1.137992 2.712558
  C 3.395157 1.605995 3.822990
  C 3.149532 -0.450982 -0.734579
  C 4.530751 -0.534466 -0.898072
  C 5.179443 -0.961405 -2.053856
  C 4.542803 -1.136206 -3.376220
  H 3.462509 -1.164186 -3.326471
  O 6.478528 -1.140485 -2.068865
  H 0.566362 0.519661 1.218429
  H 0.648492 -0.954289 0.248949
  H 0.662264 0.586837 -0.544238
  H 3.930866 1.366127 1.183725
  H 3.898836 -0.219963 1.910493
  H 1.792215 0.368474 3.116650
  H 1.846434 1.985483 2.389871
  H 3.999544 0.783887 4.193031
  H 2.825293 2.005529 4.659916
  H 4.059311 2.387940 3.466712
  H 2.524550 -0.832808 -1.526334
  H 5.166879 -0.210548 -0.082958
  H 4.923451 -2.037225 -3.852485
  H 4.845590 -0.302069 -4.012528
  H 6.924157 -1.022994 -1.208545
 26
 -0.007787
  C 1.021939 0.094641 0.328381
  C 2.496547 0.083737 0.366704
  C 3.254904 0.589971 1.535880
  C 2.454445 1.139531 2.713757
  C 3.391988 1.594081 3.828299
  C 3.152786 -0.424954 -0.748490
  C 4.534096 -0.521685 -0.905654
  C 5.182224 -0.960835 -2.057818
  C 4.536610 -1.193805 -3.366549
  H 3.460999 -1.291586 -3.298731
  O 6.483997 -1.117322 -2.080079
  H 0.573699 0.545049 1.205352
  H 0.650265 -0.926451 0.226431
  H 0.676200 0.622919 -0.560520
  H 3.938003 1.373709 1.190951
  H 3.896429 -0.217740 1.906154
  H 1.787514 0.370716 3.110035
  H 1.852102 1.991102 2.396064
  H 3.993308 0.764178 4.194479
  H 2.821754 1.988663 4.665418
  H 4.060898 2.376849 3.479570
  H 2.524309 -0.785800 -1.549319
  H 5.167907 -0.200558 -0.089628
  H 4.968541 -2.075446 -3.835807
  H 4.771570 -0.351677 -4.019178
  H 6.936127 -0.953275 -1.231552
 26
 0.080872
  C 1.024517 0.063099 0.335366
  C 2.499761 0.071407 0.366901
  C 3.253882 0.596936 1.530139
  C 2.449417 1.151454 2.701701
  C 3.382560 1.631026 3.811404
  C 3.160619 -0.442605 -0.745555
  C 4.542481 -0.517717 -0.907177
  C 5.189725 -0.960117 -2.058914
  C 4.541803 -1.193313 -3.368788
  H 3.462823 -1.214948 -3.310518
  O 6.492185 -1.115653 -2.084134
  H 0.575775 0.526923 1.204192
  H 0.666155 -0.965962 0.258548
  H 0.667312 0.566818 -0.564504
  H 3.931991 1.382500 1.176799
  H 3.902563 -0.202691 1.905007
  H 1.791733 0.380003 3.108004
  H 1.836519 1.992971 2.374684
  H 3.991440 0.813438 4.188439
  H 2.807769 2.031817 4.644146
  H 4.043647 2.415446 3.452567
  H 2.536180 -0.825702 -1.539151
  H 5.182578 -0.178563 -0.100431
  H 4.915947 -2.118851 -3.803745
  H 4.844168 -0.393888 -4.045366
  H 6.943722 -0.962095 -1.231787
 26
 -0.171502
  C 1.027047 0.092825 0.320025
  C 2.501326 0.095983 0.354575
  C 3.258042 0.612128 1.520711
  C 2.455240 1.140463 2.706836
  C 3.391939 1.616561 3.813854
  C 3.158950 -0.409403 -0.761895
  C 4.540718 -0.502845 -0.918049
  C 5.191516 -0.950420 -2.065032
  C 4.540901 -1.227543 -3.362999
  H 3.464958 -1.312753 -3.291455
  O 6.494052 -1.093007 -2.088868
  H 0.576009 0.523177 1.206427
  H 0.664132 -0.929352 0.199249
  H 0.673928 0.635465 -0.559216
  H 3.919603 1.412639 1.173347
  H 3.919076 -0.181735 1.882678
  H 1.810703 0.355517 3.107007
  H 1.827841 1.979439 2.395849
  H 4.017945 0.799834 4.173290
  H 2.820618 1.994900 4.655978
  H 4.037783 2.415797 3.460296
  H 2.530400 -0.772135 -1.562790
  H 5.169387 -0.192760 -0.094402
  H 4.962942 -2.130158 -3.797391
  H 4.785719 -0.414693 -4.049526
  H 6.947259 -0.908424 -1.245393
 26
 0.026437
  C 1.025314 0.089487 0.321044
  C 2.499865 0.098819 0.351538
  C 3.258891 0.623158 1.513748
  C 2.457495 1.146501 2.704563
  C 3.396148 1.632166 3.807997
  C 3.156849 -0.396073 -0.768764
  C 4.539513 -0.488066 -0.926622
  C 5.187760 -0.937843 -2.072000
  C 4.543553 -1.204930 -3.373876
  H 3.465496 -1.196704 -3.324444
  O 6.489486 -1.085767 -2.092271
  H 0.574809 0.475891 1.228267
  H 0.665338 -0.923726 0.146930
  H 0.669216 0.678366 -0.530009
  H 3.912183 1.428852 1.160840
  H 3.929777 -0.164577 1.872535
  H 1.820983 0.354958 3.110498
  H 1.820506 1.979521 2.395563
  H 4.032148 0.821087 4.164706
  H 2.825346 2.005852 4.653502
  H 4.033504 2.437018 3.451019
  H 2.530055 -0.757294 -1.570554
  H 5.170926 -0.167938 -0.109298
  H 4.894646 -2.160144 -3.767702
  H 4.876530 -0.442854 -4.085420
  H 6.941201 -0.906219 -1.244714
