 20
 0.000000
  C 1.007743 -0.071441 0.047808
  C 2.504018 -0.082740 0.025627
  C 3.219052 -0.595801 -0.981598
  C 4.656596 -0.606023 -1.001662
  C 5.377397 -1.121149 -2.012940
  C 6.815813 -1.130689 -2.031665
  C 7.534399 -1.642419 -3.036283
  C 9.024382 -1.661586 -3.073908
  H 0.646092 0.394871 0.963251
  H 0.611966 -1.086147 0.009302
  H 0.611967 0.494015 -0.795616
  H 3.004933 0.352541 0.880160
  H 2.707455 -1.029099 -1.832224
  H 5.160537 -0.171027 -0.147697
  H 4.873498 -1.556078 -2.866779
  H 7.322243 -0.696165 -1.178619
  H 7.035903 -2.078732 -3.892825
  H 9.457959 -1.208385 -2.184201
  H 9.383724 -1.115623 -3.947592
  H 9.383724 -2.689302 -3.145990
 20
 0.009971
  C 1.041061 0.006780 0.107582
  C 2.530745 -0.104656 0.083175
  C 3.220474 -0.643006 -0.927230
  C 4.654171 -0.726560 -0.957333
  C 5.366717 -1.112904 -2.029249
  C 6.801445 -1.187640 -2.050061
  C 7.514056 -1.577422 -3.109201
  C 8.999445 -1.662533 -3.145385
  H 0.696291 0.454005 1.036470
  H 0.580879 -0.975612 0.004927
  H 0.689470 0.620040 -0.721186
  H 3.062621 0.275803 0.945417
  H 2.693803 -1.019223 -1.794967
  H 5.172771 -0.440817 -0.049145
  H 4.854049 -1.378787 -2.944695
  H 7.311418 -0.906926 -1.136686
  H 7.005427 -1.858339 -4.023700
  H 9.433295 -1.363675 -2.192423
  H 9.396079 -1.018090 -3.929911
  H 9.314386 -2.681983 -3.370954
 20
 1.052098
  C 1.047222 0.053833 0.057757
  C 2.535166 -0.074965 0.073243
  C 3.234512 -0.734979 -0.851760
  C 4.671682 -0.827152 -0.880683
  C 5.372426 -1.087059 -1.996425
  C 6.807042 -1.176780 -2.042852
  C 7.497577 -1.539970 -3.125250
  C 8.981197 -1.648469 -3.187031
  H 0.678538 0.445148 1.002076
  H 0.577687 -0.909919 -0.130512
  H 0.732832 0.733858 -0.738551
  H 3.057426 0.420037 0.881474
  H 2.706838 -1.228937 -1.660546
  H 5.192540 -0.667228 0.056263
  H 4.845716 -1.210453 -2.935221
  H 7.333310 -0.937792 -1.128401
  H 6.971495 -1.780253 -4.040048
  H 9.433497 -1.391859 -2.230369
  H 9.377659 -0.982083 -3.954476
  H 9.275107 -2.663078 -3.454534
 20
 4.929872
  C 1.067185 0.098492 -0.003795
  C 2.552545 -0.074943 0.037076
  C 3.230947 -0.868140 -0.785721
  C 4.680023 -0.987518 -0.815468
  C 5.374630 -1.004951 -1.958586
  C 6.814222 -1.098781 -2.033855
  C 7.476760 -1.510380 -3.113942
  C 8.959321 -1.630868 -3.205245
  H 0.704778 0.575342 0.903096
  H 0.566413 -0.861120 -0.121478
  H 0.784871 0.724555 -0.851485
  H 3.089620 0.528151 0.757282
  H 2.689101 -1.479585 -1.498733
  H 5.191333 -1.087690 0.133663
  H 4.839958 -0.882553 -2.893783
  H 7.361630 -0.826339 -1.139574
  H 6.928064 -1.787397 -4.005903
  H 9.434745 -1.326928 -2.275603
  H 9.339680 -1.008459 -4.015647
  H 9.242554 -2.661081 -3.425217
 20
 10.433336
  C 1.135977 0.192118 -0.108089
  C 2.592270 -0.125477 0.027133
  C 3.232502 -1.018747 -0.718593
  C 4.684872 -1.218072 -0.736352
  C 5.358630 -1.005436 -1.866308
  C 6.805221 -1.051377 -2.007741
  C 7.431505 -1.504727 -3.083954
  C 8.912249 -1.556561 -3.244686
  H 0.782729 0.774674 0.738789
  H 0.540475 -0.716713 -0.181602
  H 0.967120 0.773642 -1.014619
  H 3.156345 0.491477 0.715445
  H 2.661195 -1.683890 -1.358749
  H 5.167746 -1.607411 0.150224
  H 4.777808 -0.628182 -2.701614
  H 7.379212 -0.695470 -1.160742
  H 6.855585 -1.870808 -3.924520
  H 9.414954 -1.154814 -2.368156
  H 9.217176 -0.982901 -4.120184
  H 9.240151 -2.585099 -3.397214
 20
 19.119718
  C 1.263941 0.301210 -0.283012
  C 2.633217 -0.213157 0.044287
  C 3.245124 -1.190140 -0.613336
  C 4.691389 -1.441400 -0.606247
  C 5.308702 -1.152507 -1.753968
  C 6.737613 -0.998732 -1.994007
  C 7.396577 -1.560021 -2.998692
  C 8.861499 -1.397989 -3.250419
  H 0.912803 0.994535 0.479507
  H 0.541602 -0.511234 -0.373141
  H 1.295345 0.827289 -1.238531
  H 3.204718 0.374874 0.752234
  H 2.645752 -1.918739 -1.152186
  H 5.172323 -1.905979 0.241987
  H 4.616478 -0.729799 -2.482975
  H 7.270991 -0.389790 -1.272817
  H 6.865047 -2.185574 -3.706196
  H 9.317596 -0.746154 -2.504409
  H 9.033470 -0.974953 -4.243048
  H 9.358294 -2.370458 -3.217241
 20
 36.694104
  C 1.544232 0.527921 -0.419077
  C 2.672421 -0.324886 0.058062
  C 3.246633 -1.288135 -0.660902
  C 4.617829 -1.785461 -0.453800
  C 5.311704 -1.469631 -1.549741
  C 6.696277 -1.183116 -1.890632
  C 7.298830 -1.549271 -3.014372
  C 8.690868 -1.180500 -3.378403
  H 1.134755 1.122186 0.391917
  H 0.741735 -0.071288 -0.853750
  H 1.907010 1.203535 -1.188219
  H 3.217551 0.056796 0.915730
  H 2.617918 -1.957084 -1.237746
  H 4.909379 -2.433988 0.353813
  H 4.562063 -0.860947 -2.129255
  H 7.211497 -0.539248 -1.188508
  H 6.774029 -2.177445 -3.727279
  H 9.127067 -0.525190 -2.632922
  H 8.708647 -0.676223 -4.341579
  H 9.307759 -2.075570 -3.464892
 20
 71.073894
  C 1.647306 0.408933 -0.844404
  C 2.731813 -0.293476 -0.056161
  C 3.427689 -1.375197 -0.529716
  C 4.775570 -1.721637 -0.035936
  C 5.519524 -1.490856 -1.101493
  C 6.676272 -1.041511 -1.749627
  C 7.260917 -1.630633 -2.813783
  C 8.456950 -1.104513 -3.480443
  H 1.172560 1.169675 -0.232862
  H 0.872945 -0.308742 -1.182273
  H 2.047802 0.872731 -1.705638
  H 3.154262 0.260064 0.760000
  H 2.888153 -2.198671 -0.951641
  H 5.018386 -2.144871 0.939287
  H 4.383669 -1.075284 -1.735841
  H 7.102343 -0.114074 -1.341366
  H 6.858811 -2.579237 -3.210746
  H 8.765079 -0.183080 -3.039961
  H 8.269765 -0.938076 -4.528827
  H 9.279684 -1.835320 -3.398976
 20
 83.655382
  C 1.667428 0.372836 -0.903424
  C 2.721601 -0.275233 -0.070118
  C 3.489322 -1.342377 -0.562987
  C 4.830935 -1.647312 0.044885
  C 5.640093 -1.418688 -0.952007
  C 6.722087 -1.007797 -1.705576
  C 7.271445 -1.680082 -2.741427
  C 8.408538 -1.165944 -3.552273
  H 1.123353 1.114582 -0.324763
  H 0.958508 -0.366728 -1.278871
  H 2.098820 0.877060 -1.774373
  H 3.098494 0.288292 0.770174
  H 2.974162 -2.234653 -0.910811
  H 5.014336 -2.044571 1.028697
  H 4.122810 -1.037995 -1.609123
  H 7.107554 -0.022113 -1.457362
  H 6.892851 -2.657621 -3.006658
  H 8.709669 -0.174798 -3.220019
  H 8.133419 -1.113247 -4.607299
  H 9.267616 -1.835104 -3.476336
 20
 79.571964
  C 1.617088 0.388518 -0.833434
  C 2.672691 -0.311747 -0.052892
  C 3.478505 -1.330075 -0.673366
  C 4.829966 -1.623290 -0.051998
  C 5.728328 -1.347876 -0.940461
  C 6.777003 -0.965319 -1.720905
  C 7.333382 -1.698573 -2.725954
  C 8.460932 -1.219274 -3.567733
  H 1.045839 1.055529 -0.192728
  H 0.935159 -0.330424 -1.290385
  H 2.039605 0.989245 -1.647948
  H 3.039033 0.174842 0.836080
  H 2.974935 -2.249481 -0.971498
  H 4.949064 -2.046897 0.932202
  H 3.905033 -0.950402 -1.669454
  H 7.155555 0.037487 -1.540829
  H 6.963061 -2.693438 -2.927756
  H 8.751508 -0.207007 -3.294640
  H 8.183299 -1.230830 -4.623812
  H 9.329301 -1.872608 -3.457855
 20
 73.806274
  C 1.671168 0.432567 -0.833564
  C 2.630576 -0.395878 -0.056482
  C 3.474460 -1.359225 -0.739468
  C 4.838175 -1.588780 -0.075842
  C 5.827381 -1.309914 -0.846405
  C 6.788943 -0.916266 -1.718018
  C 7.366589 -1.702813 -2.673389
  C 8.431064 -1.228841 -3.594876
  H 1.063514 1.042613 -0.169854
  H 1.013830 -0.202518 -1.429887
  H 2.180569 1.105765 -1.533673
  H 2.919967 -0.038147 0.917399
  H 3.026797 -2.335213 -0.934565
  H 4.864610 -1.986578 0.926285
  H 3.762690 -0.972443 -1.740956
  H 7.110479 0.117957 -1.636066
  H 7.058113 -2.733636 -2.770905
  H 8.660827 -0.179419 -3.422783
  H 8.122956 -1.353476 -4.635020
  H 9.344690 -1.812005 -3.460308
 20
 69.698998
  C 1.726870 0.424728 -0.861368
  C 2.579126 -0.493502 -0.060298
  C 3.431020 -1.455147 -0.716697
  C 4.852325 -1.527199 -0.070260
  C 5.821676 -1.292045 -0.866706
  C 6.751301 -0.873091 -1.768967
  C 7.401688 -1.666615 -2.665221
  C 8.440383 -1.168542 -3.605211
  H 1.109601 1.043211 -0.214481
  H 1.078403 -0.143732 -1.530865
  H 2.325395 1.092235 -1.493336
  H 2.785614 -0.212579 0.959603
  H 3.068215 -2.485482 -0.717661
  H 4.881032 -1.817639 0.966001
  H 3.599702 -1.171536 -1.768017
  H 6.987654 0.187097 -1.746783
  H 7.174603 -2.722701 -2.702985
  H 8.592211 -0.097103 -3.491286
  H 8.153755 -1.373334 -4.639133
  H 9.391938 -1.675686 -3.430461
 20
 65.294989
  C 1.919618 0.554936 -0.892371
  C 2.521100 -0.546543 -0.093293
  C 3.360375 -1.523903 -0.706868
  C 4.829107 -1.514885 -0.053361
  C 5.795965 -1.320775 -0.848906
  C 6.673330 -0.898779 -1.809158
  C 7.379259 -1.702777 -2.642070
  C 8.370870 -1.202304 -3.630851
  H 1.230720 1.140907 -0.289119
  H 1.386250 0.154781 -1.755395
  H 2.686153 1.235866 -1.281599
  H 2.572690 -0.405390 0.975343
  H 3.054216 -2.563411 -0.584572
  H 4.833994 -1.735479 0.996974
  H 3.503072 -1.323392 -1.772719
  H 6.825081 0.175333 -1.864645
  H 7.232272 -2.772967 -2.600536
  H 8.437319 -0.116574 -3.605200
  H 8.097698 -1.513881 -4.641020
  H 9.359891 -1.617206 -3.424969
 20
 61.766984
  C 2.137377 0.600612 -0.913617
  C 2.432055 -0.667818 -0.195385
  C 3.320501 -1.623849 -0.737624
  C 4.795167 -1.512131 -0.020745
  C 5.780275 -1.285226 -0.779614
  C 6.602065 -0.858137 -1.795138
  C 7.332380 -1.661733 -2.604395
  C 8.270007 -1.160677 -3.643604
  H 1.370958 1.172520 -0.399681
  H 1.822720 0.401231 -1.937055
  H 3.035353 1.230249 -0.980163
  H 2.220210 -0.694327 0.863858
  H 3.065507 -2.668334 -0.565204
  H 4.761994 -1.706907 1.030246
  H 3.519106 -1.466604 -1.797324
  H 6.696531 0.219117 -1.898346
  H 7.239600 -2.735037 -2.511792
  H 8.302467 -0.073547 -3.651550
  H 7.972494 -1.515561 -4.632023
  H 9.279002 -1.535419 -3.461311
 20
 62.669128
  C 2.019723 0.572802 -0.907125
  C 2.482808 -0.644622 -0.189544
  C 3.379816 -1.556077 -0.797290
  C 4.828308 -1.523443 -0.039542
  C 5.855704 -1.234195 -0.718935
  C 6.681122 -0.832703 -1.740513
  C 7.330708 -1.661370 -2.580701
  C 8.275988 -1.200943 -3.631393
  H 1.287939 1.118047 -0.316943
  H 1.572461 0.305461 -1.865486
  H 2.851973 1.251634 -1.122580
  H 2.363192 -0.657677 0.883154
  H 3.125006 -2.610619 -0.708478
  H 4.741511 -1.789795 0.995057
  H 3.563446 -1.311259 -1.844323
  H 6.857127 0.235965 -1.817334
  H 7.167339 -2.727511 -2.508394
  H 8.368152 -0.117198 -3.629330
  H 7.939218 -1.521817 -4.618705
  H 9.264229 -1.636260 -3.472062
