24

C      1.620938   -0.200183    1.262966
C      2.905336    0.512600    1.487856
C      4.143225    0.785783   -1.187813
H      4.220232   -0.480275   -1.686050
C      0.631810    0.636410    0.452181
C     -0.794226    0.061868    0.363985
H     -1.656249    1.078357   -0.398731
C     -0.732091   -1.339232   -0.258201
C     -2.061052   -2.048325   -0.500723
O     -2.813871   -2.057915    0.694428
H      1.174773   -0.433675    2.242180
H      1.820189   -1.148450    0.758949
H      2.833125    1.538467    1.814805
H      3.658312   -0.044646    2.026197
H      3.444282    1.392885   -1.741859
H      5.078537    1.271140   -0.936885
H      1.027548    0.770530   -0.556460
H      0.574803    1.623601    0.917569
H     -1.192885   -0.025714    1.379980
H     -0.161000   -1.971786    0.422248
H     -0.197705   -1.290457   -1.209618
H     -2.619276   -1.559062   -1.310091
H     -1.845925   -3.077599   -0.825146
H     -3.562662   -2.653166    0.592163
