 26
 0.000000
  C 0.998965 0.142836 0.365567
  C 2.476176 0.158103 0.396739
  C 3.242274 0.617824 1.577932
  C 2.442918 1.087633 2.787852
  H 3.108659 1.397235 3.583071
  C 3.106348 -0.291163 -0.755504
  C 4.477635 -0.391715 -0.990348
  C 5.136390 -0.861353 -2.119787
  C 4.619632 -1.395221 -3.409350
  C 3.125819 -1.503346 -3.680242
  H 2.962267 -1.913547 -4.668574
  O 6.458473 -0.867581 -2.125635
  H 0.543530 0.496885 1.283354
  H 0.636303 -0.870733 0.174476
  H 0.638980 0.764824 -0.454744
  H 3.899739 1.435202 1.260693
  H 3.900760 -0.198374 1.895873
  H 1.808218 0.286720 3.162727
  H 1.807088 1.930705 2.523617
  H 2.443124 -0.603046 -1.545398
  H 5.115305 -0.057264 -0.179080
  H 5.068923 -2.387671 -3.528132
  H 5.073612 -0.781087 -4.195289
  H 2.655532 -0.523454 -3.640575
  H 2.650676 -2.163988 -2.958609
  H 6.852804 -0.526991 -1.300883
 26
 -0.493359
  C 0.971111 0.087592 0.425564
  C 2.444507 0.150748 0.382173
  C 3.239747 0.618098 1.547888
  C 2.462537 1.119901 2.757362
  H 3.161477 1.448499 3.523216
  C 3.053577 -0.300866 -0.784749
  C 4.430055 -0.416016 -0.976878
  C 5.117902 -0.880039 -2.093599
  C 4.624735 -1.382079 -3.404912
  C 3.139178 -1.427255 -3.720241
  H 3.017666 -1.811866 -4.729888
  O 6.436043 -0.914653 -2.059179
  H 0.540645 0.625949 1.256543
  H 0.692407 -0.965836 0.515511
  H 0.535514 0.433554 -0.507815
  H 3.913568 1.412099 1.210043
  H 3.884834 -0.205996 1.872125
  H 1.844327 0.335975 3.186391
  H 1.832836 1.967144 2.501845
  H 2.393896 -0.595559 -1.583337
  H 5.062518 -0.110710 -0.150469
  H 5.047250 -2.386726 -3.517644
  H 5.135380 -0.779939 -4.164025
  H 2.694854 -0.435459 -3.692777
  H 2.608116 -2.098524 -3.050104
  H 6.833585 -0.600186 -1.222967
 26
 1.767849
  C 0.982929 0.074396 0.450122
  C 2.447692 0.129497 0.384899
  C 3.241753 0.679621 1.511547
  C 2.457756 1.139847 2.734105
  H 3.145745 1.552370 3.467699
  C 3.047386 -0.330975 -0.781779
  C 4.421386 -0.478204 -0.959046
  C 5.112192 -0.938906 -2.074222
  C 4.626723 -1.378102 -3.413012
  C 3.151131 -1.310825 -3.771437
  H 3.036828 -1.632670 -4.804439
  O 6.430389 -1.025038 -2.017203
  H 0.513852 0.730827 1.168470
  H 0.909536 -0.952176 0.853979
  H 0.495533 0.051544 -0.517114
  H 3.818648 1.527061 1.126579
  H 3.970595 -0.071782 1.831636
  H 1.929198 0.312546 3.201041
  H 1.743711 1.919588 2.482493
  H 2.391414 -0.595970 -1.590975
  H 5.049492 -0.197826 -0.122848
  H 4.979430 -2.408174 -3.536667
  H 5.201610 -0.795503 -4.141636
  H 2.770297 -0.296670 -3.700658
  H 2.559156 -1.980922 -3.155803
  H 6.821016 -0.743919 -1.167325
 26
 14.445094
  C 0.969204 0.112762 0.452229
  C 2.423518 0.117620 0.385049
  C 3.240304 0.655491 1.515791
  C 2.460057 1.157790 2.722882
  H 3.152837 1.587017 3.444048
  C 3.030854 -0.313791 -0.788374
  C 4.399654 -0.522722 -0.941748
  C 5.094349 -0.952183 -2.063134
  C 4.620520 -1.384435 -3.412663
  C 3.149658 -1.295687 -3.788686
  H 3.037307 -1.656290 -4.805300
  O 6.420595 -1.026313 -2.006627
  H 0.450042 0.607049 1.256170
  H 1.238693 -0.940053 0.814035
  H 0.428914 -0.037377 -0.471934
  H 3.833770 1.483660 1.116911
  H 3.941497 -0.110929 1.852288
  H 1.926663 0.351312 3.217184
  H 1.753596 1.936630 2.445237
  H 2.384266 -0.526042 -1.622088
  H 5.024651 -0.292145 -0.087043
  H 4.960676 -2.420738 -3.534979
  H 5.209271 -0.807228 -4.130356
  H 2.793005 -0.268666 -3.762783
  H 2.536028 -1.927643 -3.151235
  H 6.796606 -0.790485 -1.138598
 26
 32.577786
  C 0.958578 0.284881 0.413557
  C 2.382604 0.103838 0.394342
  C 3.232098 0.592732 1.542029
  C 2.462841 1.113233 2.752207
  H 3.169939 1.452983 3.505614
  C 3.013469 -0.273844 -0.825332
  C 4.378340 -0.453714 -0.974034
  C 5.080062 -0.900063 -2.080513
  C 4.613147 -1.372815 -3.422804
  C 3.132188 -1.383233 -3.767433
  H 3.021440 -1.763962 -4.778318
  O 6.420766 -0.968938 -2.018543
  H 0.445868 0.727199 1.246953
  H 1.529287 -0.844577 0.720190
  H 0.387586 0.084641 -0.479391
  H 3.862108 1.397393 1.159070
  H 3.891449 -0.212749 1.872814
  H 1.849061 0.337916 3.202619
  H 1.834700 1.960466 2.489352
  H 2.372254 -0.446680 -1.668855
  H 4.996955 -0.216970 -0.117270
  H 5.016252 -2.386217 -3.541374
  H 5.149706 -0.766437 -4.159049
  H 2.712446 -0.381555 -3.747906
  H 2.574650 -2.043080 -3.107243
  H 6.791621 -0.664636 -1.169144
 26
 41.008976
  C 0.940199 0.322144 0.412335
  C 2.355009 0.073613 0.419232
  C 3.223889 0.579615 1.559814
  C 2.461368 1.145850 2.752267
  H 3.171728 1.511305 3.489361
  C 3.000238 -0.308429 -0.821321
  C 4.362339 -0.477741 -0.970901
  C 5.068562 -0.906735 -2.085476
  C 4.606049 -1.366053 -3.429243
  C 3.127674 -1.360162 -3.784088
  H 3.020163 -1.738012 -4.798595
  O 6.398208 -0.957308 -2.025806
  H 0.433671 0.750972 1.254225
  H 1.844852 -0.946040 0.673529
  H 0.358446 0.078182 -0.459243
  H 3.870478 1.362984 1.160459
  H 3.864585 -0.230223 1.912528
  H 1.846829 0.388288 3.232255
  H 1.833846 1.983595 2.460550
  H 2.348542 -0.483235 -1.658033
  H 4.980394 -0.237536 -0.114413
  H 4.998905 -2.381518 -3.550405
  H 5.154524 -0.760233 -4.158769
  H 2.718177 -0.354489 -3.764732
  H 2.559050 -2.015408 -3.131333
  H 6.764321 -0.693969 -1.163242
 26
 42.338925
  C 0.937301 0.330794 0.418063
  C 2.337371 0.046295 0.444371
  C 3.214230 0.569921 1.579547
  C 2.452307 1.168307 2.756295
  H 3.162921 1.543736 3.488457
  C 2.997125 -0.336923 -0.815136
  C 4.356856 -0.485622 -0.968982
  C 5.062221 -0.900150 -2.093440
  C 4.591951 -1.349687 -3.436130
  C 3.110901 -1.355813 -3.780055
  H 3.001355 -1.714717 -4.800888
  O 6.385815 -0.934828 -2.042864
  H 0.436044 0.786059 1.248099
  H 2.139515 -1.070864 0.553148
  H 0.348879 0.045958 -0.435332
  H 3.870272 1.340094 1.169753
  H 3.842973 -0.238356 1.954484
  H 1.828988 0.425070 3.247103
  H 1.832670 2.004863 2.444914
  H 2.342905 -0.493207 -1.654379
  H 4.975261 -0.247573 -0.111946
  H 4.996042 -2.359123 -3.570159
  H 5.127395 -0.730782 -4.164000
  H 2.689026 -0.355804 -3.739267
  H 2.553678 -2.031256 -3.137899
  H 6.760438 -0.660803 -1.186185
 26
 43.909143
  C 0.946260 0.314845 0.442605
  C 2.320379 0.049677 0.462571
  C 3.207110 0.583124 1.580426
  C 2.456933 1.202483 2.754125
  H 3.174370 1.577023 3.480051
  C 2.973851 -0.402457 -0.792049
  C 4.348460 -0.535762 -0.953509
  C 5.050218 -0.910442 -2.086640
  C 4.578458 -1.327882 -3.441215
  C 3.096565 -1.331183 -3.782278
  H 2.987337 -1.650491 -4.816330
  O 6.378253 -0.929269 -2.046332
  H 0.449865 0.819517 1.246787
  H 2.386677 -1.135017 0.366318
  H 0.338191 -0.002249 -0.385692
  H 3.866118 1.343085 1.156051
  H 3.831927 -0.223004 1.966945
  H 1.827689 0.470597 3.253468
  H 1.844062 2.041800 2.436368
  H 2.312159 -0.564941 -1.624925
  H 4.964348 -0.302981 -0.093725
  H 4.985731 -2.332079 -3.602052
  H 5.110518 -0.688626 -4.153675
  H 2.668033 -0.336476 -3.703039
  H 2.545254 -2.035675 -3.166235
  H 6.755032 -0.666681 -1.187245
 26
 39.063155
  C 0.951757 0.284200 0.471826
  C 2.295620 0.068633 0.484423
  C 3.192891 0.588701 1.580872
  C 2.465545 1.249898 2.747140
  H 3.196456 1.623174 3.460079
  C 2.936234 -0.485993 -0.747265
  C 4.336943 -0.592801 -0.925077
  C 5.036203 -0.921167 -2.065319
  C 4.565749 -1.303601 -3.430633
  C 3.083166 -1.312554 -3.768082
  H 2.974751 -1.604760 -4.810057
  O 6.366376 -0.931201 -2.029734
  H 0.452985 0.763143 1.291633
  H 2.520659 -1.242569 0.141043
  H 0.336644 -0.053024 -0.343491
  H 3.874320 1.319378 1.139034
  H 3.796523 -0.229012 1.979734
  H 1.823147 0.542728 3.265715
  H 1.869540 2.095493 2.414777
  H 2.280624 -0.607764 -1.593759
  H 4.948948 -0.374966 -0.058748
  H 4.982936 -2.298117 -3.622696
  H 5.089359 -0.637576 -4.124242
  H 2.644679 -0.324546 -3.660987
  H 2.540305 -2.039464 -3.171463
  H 6.743860 -0.692357 -1.164917
 26
 27.531054
  C 0.961463 0.259099 0.481759
  C 2.290037 0.067267 0.501164
  C 3.203033 0.594069 1.564122
  C 2.505665 1.334931 2.700638
  H 3.251924 1.718499 3.392092
  C 2.900335 -0.615877 -0.700615
  C 4.323871 -0.668788 -0.896011
  C 5.030780 -0.913322 -2.052977
  C 4.564035 -1.231211 -3.434006
  C 3.081082 -1.257166 -3.767013
  H 2.974692 -1.498120 -4.822169
  O 6.357773 -0.895521 -2.016120
  H 0.446763 0.755606 1.283012
  H 2.607077 -1.488026 -0.031912
  H 0.345806 -0.105819 -0.321753
  H 3.914983 1.273065 1.087363
  H 3.773435 -0.231163 1.998003
  H 1.843207 0.675636 3.255529
  H 1.934178 2.180562 2.327280
  H 2.250683 -0.662413 -1.561639
  H 4.927025 -0.483001 -0.016346
  H 5.003509 -2.204274 -3.680314
  H 5.070547 -0.518779 -4.093600
  H 2.620037 -0.286398 -3.608863
  H 2.557269 -2.024954 -3.205945
  H 6.734953 -0.699985 -1.139612
 26
 19.633333
  C 0.966481 0.257665 0.489266
  C 2.291463 0.058871 0.496982
  C 3.215900 0.576964 1.548591
  C 2.550251 1.386756 2.655633
  H 3.306868 1.742975 3.350464
  C 2.866158 -0.729832 -0.651125
  C 4.307079 -0.729463 -0.857416
  C 5.017749 -0.898057 -2.026795
  C 4.553372 -1.168226 -3.417392
  C 3.071720 -1.235070 -3.747816
  H 2.970030 -1.442847 -4.810438
  O 6.341782 -0.841189 -1.990999
  H 0.457279 0.813947 1.254263
  H 2.614884 -1.724404 -0.224038
  H 0.341662 -0.133320 -0.295516
  H 3.967591 1.202211 1.057489
  H 3.739769 -0.265203 2.009678
  H 1.841131 0.782678 3.215872
  H 2.033151 2.252909 2.250822
  H 2.263042 -0.638708 -1.547005
  H 4.905733 -0.584054 0.032611
  H 5.025443 -2.114794 -3.705778
  H 5.034332 -0.415536 -4.051227
  H 2.576304 -0.286791 -3.557714
  H 2.575152 -2.036689 -3.210060
  H 6.720054 -0.682186 -1.107096
 26
 18.109336
  C 0.957081 0.225100 0.538254
  C 2.292425 0.099821 0.483621
  C 3.220949 0.605483 1.536735
  C 2.561983 1.369708 2.678811
  H 3.325182 1.732795 3.362763
  C 2.855390 -0.625545 -0.702815
  C 4.306375 -0.669240 -0.870031
  C 5.027402 -0.907974 -2.019626
  C 4.567356 -1.208312 -3.405438
  C 3.086834 -1.275500 -3.739011
  H 2.987146 -1.537371 -4.789727
  O 6.352279 -0.895798 -1.968871
  H 0.452742 0.727980 1.342117
  H 2.504098 -1.660800 -0.542501
  H 0.322853 -0.167719 -0.238100
  H 3.956879 1.256703 1.054745
  H 3.764890 -0.244267 1.960252
  H 1.885528 0.732228 3.242474
  H 2.008352 2.228551 2.307784
  H 2.338702 -0.315543 -1.611475
  H 4.894854 -0.514623 0.024391
  H 5.034388 -2.165073 -3.667547
  H 5.056877 -0.477523 -4.058295
  H 2.599756 -0.313295 -3.603847
  H 2.576459 -2.038113 -3.159859
  H 6.724881 -0.714504 -1.087105
