13

C 0.958364 -0.017674 -0.006301
C 2.454151 0.001566 0.011384
C 3.16815 0.814106 0.797879
C 4.606252 0.829927 0.813721
C 5.32719 1.646533 1.602007
H 6.397086641180401 1.6570088771531142 1.612563191963403
H 0.599064 -0.756052 -0.722293
H 0.560774 0.954144 -0.298889
H 0.561924 -0.282035 0.9741
H 2.955779 -0.687192 -0.655816
H 2.655948 1.500431 1.461289
H 5.110234 0.140004 0.148194
H 4.823696 2.336605 2.267678
