 23
 0.000000
  C 0.975790 0.137332 0.393142
  C 2.453972 0.138831 0.396445
  C 3.235887 0.609601 1.567949
  H 2.688339 0.952271 2.420984
  C 3.074760 -0.323868 -0.755623
  C 4.452396 -0.411652 -0.974602
  C 5.123831 -0.863395 -2.100714
  C 4.621920 -1.386396 -3.404454
  C 3.129954 -1.502980 -3.695876
  H 2.969462 -1.896832 -4.677723
  O 6.448567 -0.861790 -2.097024
  H 0.536390 0.506813 1.312870
  H 0.606624 -0.875729 0.225913
  H 0.606339 0.752985 -0.428456
  H 3.892013 1.422462 1.236076
  H 3.892206 -0.206765 1.890660
  H 2.419633 -0.642347 -1.548686
  H 5.073532 -0.080521 -0.149771
  H 5.075895 -2.376004 -3.531813
  H 5.076265 -0.759449 -4.180462
  H 2.655656 -0.522022 -3.641480
  H 2.655252 -2.174151 -2.978669
  H 6.820588 -0.526463 -1.260938
 23
 0.000000
  C 1.026937 0.126708 0.366679
  C 2.505044 0.132601 0.380918
  C 3.276867 0.605676 1.558172
  H 2.722007 0.946705 2.407130
  C 3.135711 -0.328234 -0.766522
  C 4.452150 -0.426678 -1.012087
  C 5.066382 -0.852529 -2.073653
  C 4.597708 -1.379794 -3.388008
  C 3.113549 -1.509441 -3.711975
  H 2.978028 -1.904595 -4.697060
  O 6.292812 -0.823706 -2.002106
  H 0.579648 0.494868 1.283128
  H 0.662031 -0.887443 0.196730
  H 0.661747 0.741272 -0.457635
  H 3.933012 1.420488 1.231156
  H 3.933205 -0.208740 1.885736
  H 2.487419 -0.648650 -1.564408
  H 5.091517 -0.100390 -0.199342
  H 5.063029 -2.365367 -3.505314
  H 5.063394 -0.748810 -4.153958
  H 2.629582 -0.532689 -3.668058
  H 2.629185 -2.184820 -3.005253
  H 6.584304 -0.456500 -1.086522
 23
 0.000000
  C 1.075574 0.116206 0.340512
  C 2.553486 0.126987 0.366925
  C 3.314019 0.602591 1.550492
  H 2.751060 0.941767 2.394848
  C 3.195104 -0.331738 -0.775279
  C 4.458543 -0.440729 -1.047136
  C 5.017437 -0.842978 -2.049869
  C 4.577543 -1.373674 -3.372765
  C 3.100753 -1.514497 -3.724562
  H 2.986758 -1.910594 -4.711993
  O 6.144001 -0.792821 -1.925135
  H 0.619537 0.482868 1.253244
  H 0.715437 -0.899143 0.167573
  H 0.715155 0.729574 -0.486787
  H 3.970137 1.419575 1.228884
  H 3.970327 -0.209657 1.883457
  H 2.554468 -0.654284 -1.578473
  H 5.117401 -0.119860 -0.247910
  H 5.052412 -2.355700 -3.481234
  H 5.052769 -0.739142 -4.129873
  H 2.608688 -0.541427 -3.689820
  H 2.608302 -2.193561 -3.027019
  H 6.341597 -0.393086 -0.928438
 23
 0.000000
  C 1.121001 0.105921 0.314881
  C 2.598558 0.122167 0.354907
  C 3.346392 0.600552 1.545425
  H 2.774428 0.937625 2.384556
  C 3.252362 -0.334156 -0.781333
  C 4.472911 -0.453441 -1.078847
  C 4.979011 -0.835039 -2.030100
  C 4.561893 -1.368284 -3.359336
  C 3.091330 -1.517863 -3.732933
  H 2.994308 -1.914589 -4.721925
  O 6.004792 -0.769611 -1.867294
  H 0.655222 0.470872 1.223369
  H 0.766229 -0.910750 0.138642
  H 0.765951 0.717971 -0.515710
  H 4.002418 1.419965 1.229866
  H 4.002604 -0.209270 1.884431
  H 2.620350 -0.659053 -1.590391
  H 5.152135 -0.138511 -0.294441
  H 5.044141 -2.347467 -3.460723
  H 5.044489 -0.730907 -4.109361
  H 2.593032 -0.547735 -3.705518
  H 2.592656 -2.199869 -3.042720
  H 6.093550 -0.337770 -0.790537
 23
 0.000000
  C 1.162339 0.096099 0.290402
  C 2.639331 0.118406 0.345527
  C 3.372989 0.599823 1.543621
  H 2.791100 0.934522 2.376858
  C 3.306581 -0.335199 -0.783965
  C 4.496184 -0.464264 -1.105854
  C 4.953185 -0.829138 -2.015413
  C 4.551369 -1.364016 -3.348701
  C 3.085181 -1.519436 -3.736832
  H 2.999532 -1.916529 -4.726728
  O 5.877610 -0.754569 -1.829809
  H 0.685805 0.459111 1.194078
  H 0.813561 -0.922014 0.110561
  H 0.813288 0.706710 -0.543783
  H 4.028839 1.421929 1.234772
  H 4.029019 -0.207310 1.889327
  H 2.684209 -0.662667 -1.599435
  H 5.195977 -0.155639 -0.337176
  H 5.038487 -2.341272 -3.445288
  H 5.038826 -0.724712 -4.093927
  H 2.582782 -0.551298 -3.714372
  H 2.582417 -2.203432 -3.051573
  H 5.842203 -0.292226 -0.676990
 23
 0.000000
  C 1.198596 0.087128 0.268043
  C 2.674769 0.116034 0.339611
  C 3.392882 0.600687 1.545792
  H 2.800261 0.932756 2.372493
  C 3.356577 -0.334548 -0.782374
  C 4.528526 -0.472278 -1.125860
  C 4.941899 -0.825890 -2.007338
  C 4.546597 -1.361448 -3.342300
  C 3.082319 -1.519349 -3.736590
  H 3.001504 -1.916586 -4.726835
  O 5.764652 -0.748232 -1.814016
  H 0.710412 0.447978 1.166350
  H 0.856396 -0.932528 0.084346
  H 0.856131 0.696200 -0.569989
  H 4.048451 1.425726 1.244251
  H 4.048624 -0.203517 1.898796
  H 2.744793 -0.664771 -1.604717
  H 5.248005 -0.169993 -0.372996
  H 5.035770 -2.337878 -3.436831
  H 5.036100 -0.721320 -4.085475
  H 2.578191 -0.552062 -3.716249
  H 2.577836 -2.204194 -3.053446
  H 5.591016 -0.258032 -0.591736
 23
 0.000000
  C 1.227300 0.079905 0.250035
  C 2.702436 0.115438 0.338120
  C 3.404820 0.603274 1.552254
  H 2.801497 0.932652 2.372265
  C 3.398776 -0.332043 -0.776156
  C 4.566757 -0.475825 -1.134727
  C 4.946357 -0.826216 -2.008168
  C 4.548016 -1.361468 -3.342348
  C 3.082844 -1.518224 -3.733762
  H 2.999774 -1.915401 -4.723845
  O 5.673367 -0.750954 -1.820800
  H 0.727476 0.438531 1.142815
  H 0.891761 -0.941272 0.062538
  H 0.891504 0.687459 -0.591789
  H 4.060011 1.431258 1.258054
  H 4.060175 -0.197988 1.912591
  H 2.797723 -0.664986 -1.605288
  H 5.302590 -0.179047 -0.395600
  H 5.036239 -2.338281 -3.437835
  H 5.036561 -0.721726 -4.086485
  H 2.579515 -0.550543 -3.712436
  H 2.579167 -2.202672 -3.049626
  H 5.358951 -0.237051 -0.539419
 23
 0.000000
  C 1.246570 0.075221 0.238357
  C 2.720614 0.116590 0.340989
  C 3.409051 0.607173 1.561985
  H 2.796369 0.934142 2.376000
  C 3.429677 -0.328105 -0.766358
  C 4.603304 -0.473956 -1.130084
  C 4.962933 -0.830337 -2.018453
  C 4.554187 -1.364506 -3.349919
  C 3.085999 -1.517312 -3.731469
  H 2.995203 -1.914258 -4.720966
  O 5.611635 -0.760696 -1.845077
  H 0.736547 0.431846 1.126158
  H 0.916940 -0.947271 0.047575
  H 0.916692 0.681461 -0.606748
  H 4.063830 1.437751 1.274250
  H 4.063986 -0.191497 1.928782
  H 2.838155 -0.663407 -1.601373
  H 5.349756 -0.180877 -0.400186
  H 5.039123 -2.342630 -3.448675
  H 5.039439 -0.726079 -4.097332
  H 2.585433 -0.548279 -3.706770
  H 2.585092 -2.200405 -3.043952
  H 5.174375 -0.227586 -0.515808
 23
 0.000000
  C 1.258811 0.072638 0.231911
  C 2.731718 0.119307 0.347761
  C 3.407407 0.612342 1.574878
  H 2.786275 0.937091 2.383360
  C 3.452281 -0.322815 -0.753176
  C 4.635595 -0.467028 -1.112824
  C 4.986935 -0.838062 -2.037717
  C 4.562848 -1.370576 -3.365044
  C 3.090339 -1.517523 -3.731978
  H 2.988131 -1.914087 -4.720516
  O 5.574059 -0.775259 -1.881366
  H 0.739566 0.427409 1.115098
  H 0.934586 -0.951031 0.038195
  H 0.934348 0.677702 -0.616128
  H 4.061749 1.445276 1.293015
  H 4.061895 -0.183973 1.947546
  H 2.869482 -0.660229 -1.593459
  H 5.387788 -0.175991 -0.388019
  H 5.042877 -2.350623 -3.468595
  H 5.043186 -0.734074 -4.117259
  H 2.593909 -0.546503 -3.702325
  H 2.593573 -2.198627 -3.039500
  H 5.031316 -0.223674 -0.506041
 23
 0.000000
  C 1.265072 0.072192 0.230793
  C 2.736710 0.124134 0.359790
  C 3.399645 0.619566 1.592886
  H 2.770159 0.942075 2.395785
  C 3.468656 -0.315388 -0.734662
  C 4.663636 -0.454776 -1.082285
  C 5.017484 -0.850519 -2.068769
  C 4.573103 -1.380737 -3.390367
  C 3.095119 -1.519877 -3.737831
  H 2.977775 -1.915863 -4.724923
  O 5.559317 -0.794921 -1.930367
  H 0.736692 0.425088 1.109303
  H 0.946257 -0.952628 0.034204
  H 0.946029 0.676104 -0.620120
  H 4.053492 1.454841 1.316865
  H 4.053627 -0.174407 1.971396
  H 2.894595 -0.654874 -1.580111
  H 5.417733 -0.164423 -0.359186
  H 5.046532 -2.363308 -3.500211
  H 5.046836 -0.746762 -4.148881
  H 2.604268 -0.546245 -3.701664
  H 2.603936 -2.198365 -3.038832
  H 4.922995 -0.220447 -0.497978
 23
 0.000000
  C 1.263778 0.075004 0.237791
  C 2.733880 0.132679 0.381088
  C 3.382860 0.630669 1.620561
  H 2.744345 0.950708 2.417296
  C 3.478138 -0.303968 -0.706188
  C 4.687824 -0.436145 -1.035839
  C 5.056856 -0.870750 -2.119196
  C 4.585184 -1.397693 -3.432624
  C 3.100276 -1.526232 -3.753656
  H 2.962510 -1.921307 -4.738473
  O 5.574610 -0.822421 -1.998905
  H 0.725511 0.425823 1.111116
  H 0.950885 -0.951047 0.038133
  H 0.950672 0.677683 -0.616195
  H 4.036099 1.468491 1.350893
  H 4.036220 -0.160756 2.005427
  H 2.913651 -0.645674 -1.557172
  H 5.440762 -0.145375 -0.311701
  H 5.049535 -2.383620 -3.550833
  H 5.049834 -0.767076 -4.199510
  H 2.617126 -0.549114 -3.708800
  H 2.616798 -2.201231 -3.045961
  H 4.852991 -0.212742 -0.478751
 23
 0.000000
  C 1.253226 0.081789 0.254690
  C 2.721609 0.145257 0.412438
  C 3.356399 0.645780 1.658223
  H 2.708822 0.963286 2.448633
  C 3.478241 -0.288434 -0.667456
  C 4.704720 -0.413525 -0.979445
  C 5.100605 -0.897876 -2.186803
  C 4.597555 -1.420782 -3.490166
  C 3.105315 -1.536986 -3.780449
  H 2.943968 -1.930823 -4.762178
  O 5.623367 -0.855997 -2.082592
  H 0.705017 0.430468 1.122671
  H 0.946359 -0.945484 0.051986
  H 0.946160 0.683244 -0.602348
  H 4.008951 1.486176 1.394975
  H 4.009058 -0.143069 2.049514
  H 2.923503 -0.632348 -1.523944
  H 5.454812 -0.121738 -0.252767
  H 5.051181 -2.410514 -3.617857
  H 5.051476 -0.793973 -4.266541
  H 2.631307 -0.555901 -3.725707
  H 2.630980 -2.208016 -3.062859
  H 4.833957 -0.196860 -0.439141
 23
 0.000000
  C 1.238912 0.089922 0.274948
  C 2.705415 0.159165 0.447104
  C 3.325967 0.662163 1.699052
  H 2.669416 0.977104 2.483059
  C 3.474315 -0.271526 -0.625300
  C 4.714207 -0.390119 -0.921083
  C 5.139365 -0.924816 -2.253942
  C 4.606754 -1.443649 -3.547153
  C 3.108238 -1.548088 -3.808111
  H 2.924578 -1.940569 -4.786459
  O 5.680913 -0.888692 -2.164081
  H 0.680838 0.436426 1.137497
  H 0.938096 -0.938548 0.069263
  H 0.937911 0.690178 -0.585077
  H 3.977761 1.505125 1.442205
  H 3.977853 -0.124118 2.096749
  H 2.929370 -0.617606 -1.487186
  H 5.461032 -0.097173 -0.191512
  H 5.049990 -2.436910 -3.683638
  H 5.050283 -0.820371 -4.332329
  H 2.643127 -0.563308 -3.744159
  H 2.642800 -2.215420 -3.081305
  H 4.833055 -0.177013 -0.389653
 23
 0.000000
  C 1.222605 0.098592 0.296543
  C 2.686932 0.173961 0.483980
  C 3.292290 0.679523 1.742318
  H 2.626288 0.991702 2.519429
  C 3.468765 -0.253492 -0.580339
  C 4.718628 -0.365275 -0.859138
  C 5.172580 -0.949958 -2.316601
  C 4.611953 -1.464685 -3.599573
  C 3.108066 -1.557840 -3.832408
  H 2.903167 -1.948861 -4.807118
  O 5.737382 -0.919605 -2.241131
  H 0.654125 0.442743 1.153219
  H 0.928251 -0.931123 0.087757
  H 0.928082 0.697601 -0.566588
  H 3.943197 1.525207 1.492261
  H 3.943274 -0.104034 2.146810
  H 2.934288 -0.601830 -1.447853
  H 5.461792 -0.071041 -0.126354
  H 5.045078 -2.461239 -3.744268
  H 5.045368 -0.844703 -4.392965
  H 2.651648 -0.569596 -3.759824
  H 2.651321 -2.221705 -3.096963
  H 4.828538 -0.155370 -0.335688
