 17
 0.000000
  C 1.014866 0.093662 0.303282
  C 2.481665 0.093674 0.339712
  H 3.007828 0.463820 1.205408
  C 3.161500 -0.374517 -0.757814
  C 4.543918 -0.431232 -0.933744
  C 5.200237 -0.866559 -2.087701
  C 4.551946 -1.344147 -3.325328
  H 3.472862 -1.347193 -3.308655
  O 6.505979 -0.876803 -2.148321
  H 0.564912 0.495158 1.205191
  H 0.645751 -0.922010 0.146105
  H 0.667972 0.669786 -0.561203
  H 2.541969 -0.714451 -1.577207
  H 5.159486 -0.107889 -0.102123
  H 4.916894 -2.350683 -3.538039
  H 4.902586 -0.729525 -4.156432
  H 6.958100 -0.564181 -1.341816
 17
 -1.052807
  C 1.007741 0.112967 0.369188
  C 2.466042 0.054103 0.277132
  H 3.052051 0.454798 1.095476
  C 3.108011 -0.438732 -0.833814
  C 4.496764 -0.429149 -0.974625
  C 5.209622 -0.857346 -2.097862
  C 4.604129 -1.386342 -3.334102
  H 3.521972 -1.354265 -3.330591
  O 6.514052 -0.808728 -2.122858
  H 0.662046 0.345996 1.369585
  H 0.548845 -0.806015 0.004777
  H 0.650735 0.897293 -0.309208
  H 2.494979 -0.829724 -1.633065
  H 5.070822 -0.051776 -0.135674
  H 4.940357 -2.416094 -3.481259
  H 4.988674 -0.827810 -4.186080
  H 6.939380 -0.468397 -1.311981
 17
 0.412864
  C 1.008706 0.084935 0.397673
  C 2.456798 0.014264 0.288260
  H 3.047424 0.408164 1.103196
  C 3.095429 -0.435182 -0.849611
  C 4.480275 -0.369830 -1.011894
  C 5.199739 -0.837651 -2.115287
  C 4.603893 -1.441689 -3.320576
  H 3.524785 -1.441158 -3.309303
  O 6.506389 -0.791703 -2.135018
  H 0.633992 0.167467 1.414984
  H 0.483331 -0.644923 -0.212987
  H 0.832472 1.064554 -0.089085
  H 2.488330 -0.852227 -1.639990
  H 5.050722 0.028419 -0.181397
  H 4.970299 -2.471055 -3.414749
  H 4.962443 -0.915692 -4.202292
  H 6.923955 -0.370397 -1.360242
 17
 12.684756
  C 1.000694 -0.016259 0.470158
  C 2.431018 0.022572 0.273423
  H 3.048980 0.442965 1.063883
  C 3.073709 -0.448517 -0.862799
  C 4.458034 -0.333128 -1.036536
  C 5.185642 -0.813773 -2.121674
  C 4.592983 -1.427673 -3.336096
  H 3.521816 -1.258619 -3.414759
  O 6.497644 -0.736295 -2.147608
  H 0.596919 0.167021 1.450762
  H 0.434065 -0.638631 -0.203135
  H 1.139901 1.010056 -0.085385
  H 2.486054 -0.963078 -1.591018
  H 5.014437 0.137149 -0.237625
  H 4.791311 -2.497520 -3.323498
  H 5.104649 -1.039726 -4.222935
  H 6.896722 -0.407090 -1.325363
 17
 29.768261
  C 0.987623 -0.062980 0.524957
  C 2.381516 0.059403 0.265314
  H 3.025780 0.398913 1.072580
  C 3.049448 -0.459305 -0.877891
  C 4.433272 -0.359938 -1.036035
  C 5.163160 -0.808498 -2.127532
  C 4.588832 -1.430592 -3.345521
  H 3.515910 -1.301859 -3.417939
  O 6.486045 -0.756967 -2.134451
  H 0.561988 0.254452 1.460283
  H 0.365380 -0.636917 -0.145232
  H 1.516876 0.982174 -0.129725
  H 2.464501 -0.965771 -1.630505
  H 4.985574 0.118064 -0.239363
  H 4.827698 -2.493960 -3.347573
  H 5.071355 -1.000750 -4.225430
  H 6.867431 -0.336602 -1.338918
 17
 32.738294
  C 0.993598 -0.200656 0.544623
  C 2.357760 0.168310 0.255616
  H 2.983917 0.483608 1.072769
  C 3.047408 -0.385764 -0.901310
  C 4.411772 -0.326720 -1.040493
  C 5.137729 -0.817566 -2.122836
  C 4.556405 -1.453372 -3.335292
  H 3.490147 -1.290812 -3.423007
  O 6.455373 -0.785968 -2.122747
  H 0.550453 0.050509 1.488204
  H 0.393608 -0.693836 -0.189967
  H 1.887758 1.118218 -0.186389
  H 2.426970 -0.856502 -1.653064
  H 4.972456 0.157096 -0.251059
  H 4.751177 -2.517160 -3.313218
  H 5.064643 -1.062446 -4.206225
  H 6.843723 -0.391325 -1.321053
 17
 33.552049
  C 0.983674 -0.174499 0.569424
  C 2.337191 0.168633 0.275560
  H 2.958339 0.490577 1.103529
  C 3.036329 -0.399008 -0.882903
  C 4.400428 -0.324710 -1.035964
  C 5.122549 -0.814525 -2.121184
  C 4.534416 -1.439017 -3.325600
  H 3.467988 -1.270992 -3.410174
  O 6.438335 -0.775307 -2.139103
  H 0.558998 0.011651 1.535267
  H 0.360302 -0.618346 -0.184189
  H 2.170144 1.048767 -0.420596
  H 2.424160 -0.897201 -1.618497
  H 4.967018 0.140413 -0.243207
  H 4.728661 -2.509410 -3.301346
  H 5.039799 -1.056138 -4.207589
  H 6.843937 -0.389939 -1.341282
 17
 36.389986
  C 0.984962 -0.173659 0.604124
  C 2.307767 0.131382 0.315365
  H 2.933023 0.472565 1.133834
  C 3.000989 -0.348288 -0.894829
  C 4.386277 -0.280993 -1.042153
  C 5.101682 -0.801056 -2.105423
  C 4.509470 -1.438983 -3.305830
  H 3.453745 -1.230351 -3.419373
  O 6.421331 -0.778103 -2.123118
  H 0.578075 -0.000237 1.581571
  H 0.328056 -0.589920 -0.139909
  H 2.390832 0.900553 -0.605622
  H 2.402063 -0.866397 -1.628926
  H 4.949330 0.184926 -0.244143
  H 4.657061 -2.517105 -3.248217
  H 5.049236 -1.099721 -4.187991
  H 6.826810 -0.374959 -1.334786
 17
 30.915519
  C 1.021182 -0.213119 0.639827
  C 2.307947 0.106720 0.368656
  H 2.951613 0.483153 1.153526
  C 2.946904 -0.265693 -0.921345
  C 4.366310 -0.198275 -1.075469
  C 5.085380 -0.784206 -2.092487
  C 4.492760 -1.417688 -3.293780
  H 3.440616 -1.185258 -3.416903
  O 6.412405 -0.812083 -2.080855
  H 0.600787 -0.031918 1.609775
  H 0.361318 -0.630214 -0.097820
  H 2.506556 0.841809 -0.913860
  H 2.350297 -0.859909 -1.600429
  H 4.924280 0.273258 -0.277965
  H 4.614654 -2.497458 -3.231709
  H 5.050090 -1.098317 -4.170906
  H 6.821150 -0.452743 -1.272857
 17
 22.220810
  C 1.036141 -0.198454 0.627703
  C 2.337777 0.000089 0.413243
  H 2.993723 0.313498 1.207175
  C 2.940601 -0.181733 -0.944869
  C 4.373599 -0.212054 -1.060656
  C 5.088428 -0.781956 -2.097413
  C 4.490839 -1.461148 -3.267670
  H 3.424543 -1.311823 -3.347580
  O 6.401209 -0.784517 -2.100305
  H 0.599347 -0.079518 1.607005
  H 0.364139 -0.502158 -0.157256
  H 2.600727 0.885227 -1.069761
  H 2.354137 -0.783171 -1.625529
  H 4.932523 0.262947 -0.261885
  H 4.703206 -2.529018 -3.207273
  H 4.982637 -1.107134 -4.173284
  H 6.812984 -0.348241 -1.339226
 17
 17.714494
  C 1.045393 -0.135207 0.651082
  C 2.357320 -0.019430 0.429621
  H 3.029688 0.288932 1.216420
  C 2.923962 -0.209304 -0.937534
  C 4.369253 -0.221540 -1.054109
  C 5.091556 -0.786474 -2.090147
  C 4.498440 -1.433203 -3.277957
  H 3.419974 -1.359820 -3.311533
  O 6.400229 -0.778030 -2.089537
  H 0.618691 0.029206 1.625706
  H 0.354551 -0.430800 -0.121526
  H 2.546838 0.762203 -1.323936
  H 2.400228 -0.963501 -1.523443
  H 4.920996 0.255602 -0.253591
  H 4.794793 -2.482471 -3.299570
  H 4.926699 -0.987218 -4.175330
  H 6.813007 -0.369428 -1.307436
 17
 17.750212
  C 1.030822 0.007820 0.633470
  C 2.348842 -0.046734 0.445054
  H 3.019491 0.268784 1.231119
  C 2.926812 -0.357698 -0.887279
  C 4.374638 -0.323116 -1.003087
  C 5.100282 -0.785945 -2.087542
  C 4.506112 -1.366091 -3.310318
  H 3.425652 -1.407661 -3.282262
  O 6.411013 -0.726848 -2.108296
  H 0.617812 0.367275 1.560316
  H 0.315382 -0.340830 -0.091021
  H 2.485798 0.484385 -1.458496
  H 2.466023 -1.229788 -1.361017
  H 4.920513 0.111439 -0.175244
  H 4.907406 -2.368232 -3.464555
  H 4.830450 -0.782675 -4.172631
  H 6.824571 -0.344570 -1.311031
 17
 15.362857
  C 1.035157 -0.030307 0.666385
  C 2.341519 0.046500 0.414103
  H 3.021385 0.388861 1.181486
  C 2.914654 -0.309785 -0.908015
  C 4.370208 -0.308301 -1.000154
  C 5.096398 -0.784316 -2.079901
  C 4.496592 -1.339636 -3.311148
  H 3.415191 -1.315985 -3.308791
  O 6.408444 -0.769389 -2.083098
  H 0.626185 0.221268 1.628781
  H 0.328872 -0.357139 -0.078448
  H 2.513171 0.424588 -1.629426
  H 2.482646 -1.250275 -1.275287
  H 4.916689 0.102018 -0.160911
  H 4.842865 -2.364710 -3.447957
  H 4.876539 -0.787037 -4.171193
  H 6.825102 -0.406841 -1.279244
