 12
 0.000000
  C 0.965242 0.148584 0.433972
  C 2.424723 0.134652 0.393247
  C 3.229733 0.590445 1.522175
  H 2.635068 0.932759 2.361524
  C 3.055798 -0.323752 -0.750124
  H 4.128862 -0.355817 -0.834886
  H 0.573323 0.517740 1.376501
  H 0.568824 -0.852704 0.240594
  H 0.565144 0.754845 -0.384983
  H 3.911509 1.385545 1.202451
  H 3.905917 -0.206643 1.848944
  H 2.477482 -0.663734 -1.593844
 12
 3.888009
  C 0.958879 0.092141 0.489673
  C 2.389426 0.136560 0.401973
  C 3.220538 0.616583 1.508745
  H 2.641119 0.971779 2.349041
  C 3.028122 -0.315638 -0.759735
  H 4.103779 -0.343789 -0.827494
  H 0.530727 0.472961 1.409297
  H 0.504463 -0.855585 0.215661
  H 0.814259 0.746746 -0.372831
  H 3.918509 1.387985 1.183220
  H 3.875413 -0.195317 1.833552
  H 2.463897 -0.651877 -1.615364
 12
 10.665115
  C 0.954271 0.035768 0.530860
  C 2.374971 0.127339 0.405079
  C 3.212520 0.650256 1.487156
  H 2.628025 1.033554 2.327957
  C 3.011713 -0.320201 -0.765846
  H 4.095086 -0.372389 -0.827422
  H 0.518503 0.391582 1.445463
  H 0.451231 -0.843560 0.136981
  H 1.020822 0.779916 -0.277377
  H 3.919994 1.411853 1.145850
  H 3.831046 -0.187311 1.833573
  H 2.451538 -0.640227 -1.633331
 12
 16.659698
  C 0.950933 -0.005337 0.554590
  C 2.366969 0.121817 0.386439
  C 3.202940 0.675084 1.473553
  H 2.617734 1.070460 2.292508
  C 3.005240 -0.335331 -0.781055
  H 4.086453 -0.400483 -0.834983
  H 0.518274 0.308161 1.490954
  H 0.411900 -0.807850 0.062990
  H 1.182506 0.829267 -0.169209
  H 3.902088 1.428107 1.124373
  H 3.802611 -0.154304 1.845353
  H 2.451774 -0.652135 -1.646777
 12
 21.068570
  C 0.950656 -0.039172 0.567371
  C 2.360237 0.122147 0.374800
  C 3.196894 0.691550 1.462343
  H 2.607153 1.101969 2.269524
  C 3.001097 -0.349015 -0.792002
  H 4.077697 -0.413205 -0.838246
  H 0.514402 0.232525 1.520252
  H 0.387660 -0.760216 -0.012575
  H 1.311298 0.870933 -0.066959
  H 3.887887 1.440595 1.099632
  H 3.797630 -0.123717 1.861085
  H 2.443830 -0.678108 -1.652710
 12
 24.686578
  C 0.951116 -0.065349 0.576328
  C 2.351523 0.132799 0.364550
  C 3.193841 0.702042 1.456278
  H 2.601022 1.120433 2.259666
  C 2.998445 -0.357023 -0.798064
  H 4.069988 -0.410150 -0.842857
  H 0.513195 0.176728 1.533562
  H 0.373149 -0.711895 -0.065848
  H 1.405376 0.896797 0.003869
  H 3.881611 1.455145 1.083254
  H 3.798094 -0.104355 1.867538
  H 2.442418 -0.712143 -1.647931
 12
 28.332271
  C 0.948334 -0.080844 0.584778
  C 2.344362 0.141316 0.358131
  C 3.191406 0.707741 1.452978
  H 2.597120 1.133092 2.256082
  C 2.995881 -0.353517 -0.801074
  H 4.075825 -0.404932 -0.844082
  H 0.513915 0.168335 1.542197
  H 0.363933 -0.703584 -0.076666
  H 1.479663 0.897756 0.027994
  H 3.879545 1.461501 1.077523
  H 3.792763 -0.098908 1.865602
  H 2.447053 -0.713017 -1.652300
 12
 31.351155
  C 0.947703 -0.097303 0.589918
  C 2.341487 0.154965 0.358156
  C 3.196070 0.715264 1.455965
  H 2.603567 1.144494 2.258064
  C 2.996096 -0.351378 -0.806201
  H 4.071664 -0.398693 -0.849887
  H 0.506713 0.158252 1.541772
  H 0.366061 -0.697271 -0.091568
  H 1.537375 0.902858 0.039206
  H 3.883705 1.464914 1.078839
  H 3.793865 -0.089063 1.870382
  H 2.443783 -0.717988 -1.651476
 12
 34.296464
  C 0.947291 -0.113581 0.594440
  C 2.338220 0.169689 0.358928
  C 3.197967 0.722462 1.458727
  H 2.617019 1.146917 2.241934
  C 2.994616 -0.345215 -0.803904
  H 4.075017 -0.388399 -0.846429
  H 0.495512 0.147028 1.543495
  H 0.368395 -0.694107 -0.105726
  H 1.586355 0.912745 0.041978
  H 3.897976 1.481129 1.075475
  H 3.797946 -0.093457 1.882594
  H 2.435373 -0.720721 -1.647027
 12
 36.195129
  C 0.954790 -0.138203 0.604294
  C 2.337081 0.189137 0.355817
  C 3.207952 0.728019 1.460473
  H 2.621450 1.169027 2.256860
  C 2.998139 -0.342865 -0.811721
  H 4.070687 -0.378001 -0.855971
  H 0.494493 0.126759 1.543068
  H 0.372022 -0.691114 -0.113821
  H 1.634286 0.949412 0.028779
  H 3.907180 1.466849 1.081975
  H 3.790944 -0.085037 1.882036
  H 2.434487 -0.734052 -1.639321
 12
 38.347259
  C 0.957892 -0.150894 0.611805
  C 2.337967 0.200336 0.353839
  C 3.211593 0.733366 1.463133
  H 2.624630 1.182137 2.254629
  C 2.999622 -0.339321 -0.815999
  H 4.073215 -0.368322 -0.864677
  H 0.496080 0.118684 1.548016
  H 0.377763 -0.696577 -0.113811
  H 1.682946 0.969345 0.016995
  H 3.917538 1.465823 1.085961
  H 3.784846 -0.082550 1.890627
  H 2.432837 -0.733094 -1.640596
 12
 40.057636
  C 0.962837 -0.164024 0.618497
  C 2.338031 0.212346 0.351687
  C 3.215472 0.738386 1.465139
  H 2.629802 1.195335 2.251947
  C 3.002213 -0.335107 -0.820485
  H 4.075059 -0.355932 -0.872369
  H 0.500227 0.110838 1.552546
  H 0.383086 -0.703594 -0.111082
  H 1.729092 0.994810 0.004105
  H 3.929161 1.463046 1.088842
  H 3.778512 -0.080930 1.897725
  H 2.434087 -0.734599 -1.641418
 12
 41.055781
  C 0.971563 -0.181039 0.626816
  C 2.336315 0.226885 0.348337
  C 3.219199 0.742637 1.466543
  H 2.635998 1.212222 2.246732
  C 3.003770 -0.330032 -0.823717
  H 4.075811 -0.334231 -0.880625
  H 0.507015 0.100192 1.557953
  H 0.389863 -0.716687 -0.103422
  H 1.783310 1.032163 -0.019424
  H 3.944949 1.454938 1.091171
  H 3.766082 -0.082981 1.906589
  H 2.433415 -0.738461 -1.638756
 12
 41.699590
  C 0.983042 -0.196799 0.636385
  C 2.336300 0.242717 0.342151
  C 3.222367 0.748326 1.467683
  H 2.639404 1.232629 2.239491
  C 3.003953 -0.318547 -0.830346
  H 4.075239 -0.314425 -0.891783
  H 0.520436 0.084804 1.567731
  H 0.399460 -0.733493 -0.091733
  H 1.846530 1.071713 -0.050001
  H 3.962655 1.446701 1.094978
  H 3.750254 -0.083802 1.918144
  H 2.431175 -0.742786 -1.635718
