 17
 0.000000
  C 1.008704 -0.071190 0.048756
  C 2.504471 -0.082224 0.024814
  C 3.220087 -0.595349 -0.980308
  C 4.656608 -0.606964 -1.003405
  C 5.376928 -1.122087 -2.015482
  C 6.814376 -1.132774 -2.034439
  C 7.531019 -1.641038 -3.035005
  H 8.603937 -1.653605 -3.058147
  H 0.647645 0.396542 0.962853
  H 0.612980 -1.085574 0.012378
  H 0.611391 0.490426 -0.795873
  H 3.006013 0.354362 0.877704
  H 2.709366 -1.029409 -1.830503
  H 5.161694 -0.172665 -0.150180
  H 4.872724 -1.555557 -2.869348
  H 7.319463 -0.699698 -1.180235
  H 7.036292 -2.075496 -3.891901
 17
 -0.105608
  C 1.011186 -0.157834 0.065202
  C 2.502776 -0.101553 0.046060
  C 3.240021 -0.396775 -1.027980
  C 4.675056 -0.455605 -1.033012
  C 5.384666 -0.990480 -2.041642
  C 6.813478 -1.144379 -2.040451
  C 7.494588 -1.748283 -3.012681
  H 8.565955 -1.855122 -2.979909
  H 0.603559 0.434618 0.879888
  H 0.687957 -1.193011 0.200241
  H 0.595171 0.195853 -0.876464
  H 2.991358 0.144896 0.979289
  H 2.746337 -0.654951 -1.956007
  H 5.182801 -0.098007 -0.147076
  H 4.862744 -1.362088 -2.915464
  H 7.338059 -0.741016 -1.182986
  H 6.998328 -2.158399 -3.875028
 17
 2.833658
  C 1.067744 -0.327713 0.019892
  C 2.535356 -0.051369 0.037171
  C 3.288785 -0.076657 -1.063637
  C 4.726615 -0.172040 -1.056679
  C 5.373539 -0.854167 -2.013790
  C 6.772143 -1.189435 -2.003394
  C 7.366571 -1.913034 -2.950014
  H 8.413862 -2.158087 -2.908388
  H 0.586127 -0.018994 0.943612
  H 0.944116 -1.407261 -0.095454
  H 0.579413 0.158792 -0.821706
  H 3.004848 0.034772 1.008088
  H 2.808193 -0.184262 -2.028929
  H 5.248754 0.159995 -0.168216
  H 4.816706 -1.186655 -2.882063
  H 7.345936 -0.826337 -1.159400
  H 6.818231 -2.290884 -3.797384
 17
 8.624065
  C 1.188372 -0.507739 -0.027882
  C 2.561065 0.040507 0.002251
  C 3.302045 0.159374 -1.094595
  C 4.746245 0.050641 -1.089683
  C 5.318411 -0.761475 -1.993806
  C 6.688050 -1.191975 -1.969631
  C 7.225373 -2.007719 -2.869641
  H 8.249226 -2.335905 -2.802521
  H 0.662297 -0.405097 0.911559
  H 1.333071 -1.568900 -0.250290
  H 0.591029 -0.056821 -0.821504
  H 3.047693 0.095720 0.976236
  H 2.823773 0.052669 -2.058885
  H 5.283802 0.378958 -0.215939
  H 4.741427 -1.056106 -2.863071
  H 7.287524 -0.823991 -1.142909
  H 6.646503 -2.403237 -3.682323
 17
 16.734145
  C 1.322920 -0.651398 -0.141928
  C 2.587680 0.128535 0.022610
  C 3.360172 0.387393 -1.037465
  C 4.787689 0.180797 -1.027073
  C 5.262875 -0.676630 -1.941268
  C 6.577762 -1.265595 -1.916015
  C 7.058908 -2.043516 -2.883185
  H 8.025646 -2.509226 -2.812093
  H 0.745763 -0.732674 0.772679
  H 1.711913 -1.636124 -0.421541
  H 0.697850 -0.273748 -0.947616
  H 3.018507 0.153350 1.016992
  H 2.894546 0.381710 -2.017269
  H 5.324642 0.367519 -0.105450
  H 4.682331 -0.859091 -2.834604
  H 7.166677 -1.084285 -1.025627
  H 6.476796 -2.278087 -3.759961
 17
 28.403223
  C 1.524357 -0.797906 -0.256985
  C 2.619322 0.175408 0.040668
  C 3.385416 0.601309 -0.979329
  C 4.799209 0.307825 -0.987130
  C 5.165053 -0.617920 -1.891296
  C 6.420271 -1.323684 -1.862046
  C 6.854416 -2.107893 -2.846878
  H 7.788219 -2.639397 -2.782829
  H 0.941660 -1.094739 0.611461
  H 2.141599 -1.640274 -0.604936
  H 0.875717 -0.481260 -1.071562
  H 3.017304 0.173295 1.046809
  H 2.918989 0.614529 -1.961982
  H 5.356318 0.437894 -0.072483
  H 4.603512 -0.700230 -2.814860
  H 7.017832 -1.198811 -0.967314
  H 6.284384 -2.246181 -3.752031
 17
 38.903331
  C 1.701314 -0.911433 -0.356746
  C 2.637049 0.181985 0.051915
  C 3.378865 0.722815 -0.940575
  C 4.795748 0.409250 -0.969463
  C 5.096981 -0.561327 -1.855679
  C 6.326063 -1.310174 -1.842318
  C 6.687527 -2.156836 -2.805729
  H 7.594219 -2.735336 -2.747228
  H 1.145983 -1.361611 0.456812
  H 2.459563 -1.619557 -0.738414
  H 1.047250 -0.648818 -1.182212
  H 3.074449 0.085463 1.037878
  H 2.900839 0.825512 -1.912613
  H 5.364164 0.518265 -0.050106
  H 4.529155 -0.624681 -2.774111
  H 6.931701 -1.220359 -0.948355
  H 6.071410 -2.317839 -3.676974
 17
 52.854369
  C 1.909248 -0.983786 -0.376722
  C 2.672983 0.228969 0.049139
  C 3.347102 0.818239 -0.970999
  C 4.730641 0.416788 -0.995446
  C 4.942833 -0.598019 -1.853082
  C 6.143577 -1.407248 -1.776420
  C 6.594637 -2.156878 -2.785633
  H 7.456138 -2.794437 -2.679486
  H 1.461736 -1.547037 0.417969
  H 2.793409 -1.547147 -0.794179
  H 1.241186 -0.836030 -1.214104
  H 3.079370 0.238682 1.051435
  H 2.860426 0.770786 -1.949787
  H 5.287290 0.452873 -0.055351
  H 4.485078 -0.549718 -2.807308
  H 6.708317 -1.342476 -0.861744
  H 6.097517 -2.177511 -3.736674
 17
 71.493579
  C 2.188036 -1.063863 -0.470623
  C 2.694396 0.197202 0.056180
  C 3.295943 0.917980 -0.962932
  C 4.667867 0.517218 -0.988528
  C 4.798480 -0.589432 -1.809384
  C 5.984473 -1.419968 -1.722660
  C 6.392501 -2.234766 -2.687943
  H 7.261747 -2.861046 -2.576765
  H 1.884400 -1.810926 0.246667
  H 3.283375 -1.420278 -1.007418
  H 1.565557 -1.023107 -1.352832
  H 3.133243 0.191903 1.043528
  H 2.788581 0.902884 -1.920361
  H 5.230832 0.547900 -0.065563
  H 4.363573 -0.539992 -2.801486
  H 6.559583 -1.332023 -0.809876
  H 5.839005 -2.340818 -3.606287
 17
 81.542433
  C 2.228830 -1.057686 -0.430884
  C 2.667796 0.170021 0.071102
  C 3.275229 0.897286 -0.973284
  C 4.616432 0.503947 -0.993278
  C 4.749810 -0.647172 -1.818330
  C 5.970564 -1.449115 -1.738979
  C 6.378606 -2.279660 -2.688507
  H 7.270098 -2.872416 -2.581658
  H 1.963541 -1.831886 0.272752
  H 3.622544 -1.384965 -1.138911
  H 1.659647 -1.084293 -1.349582
  H 3.080379 0.218240 1.069180
  H 2.755605 0.876655 -1.928085
  H 5.194157 0.542236 -0.078228
  H 4.312404 -0.603240 -2.811875
  H 6.537689 -1.354704 -0.821637
  H 5.831688 -2.399044 -3.609765
 17
 73.531962
  C 2.129196 -1.023651 -0.331733
  C 2.618436 0.169173 0.095937
  C 3.256995 0.845775 -1.001228
  C 4.577942 0.452876 -1.022224
  C 4.747418 -0.760399 -1.841050
  C 6.028931 -1.496931 -1.769830
  C 6.492381 -2.272807 -2.735287
  H 7.389203 -2.856121 -2.613324
  H 1.836569 -1.763746 0.399813
  H 3.883075 -1.408380 -1.248050
  H 1.606609 -1.100991 -1.272533
  H 3.053969 0.247895 1.083857
  H 2.726768 0.790847 -1.948636
  H 5.162147 0.507243 -0.109927
  H 4.319454 -0.727100 -2.843428
  H 6.583434 -1.382561 -0.847986
  H 5.965871 -2.393172 -3.667419
 17
 60.911745
  C 1.935725 -0.965651 -0.196461
  C 2.549947 0.184948 0.116672
  C 3.268627 0.731444 -1.016462
  C 4.567601 0.318298 -1.033870
  C 4.811091 -0.876203 -1.893820
  C 6.150555 -1.515504 -1.835561
  C 6.658370 -2.267224 -2.795536
  H 7.613277 -2.753305 -2.694092
  H 1.576028 -1.621532 0.582390
  H 4.050450 -1.540961 -1.347767
  H 1.471107 -1.112544 -1.157402
  H 2.931060 0.359178 1.111673
  H 2.738331 0.682060 -1.964021
  H 5.154951 0.379905 -0.124646
  H 4.419869 -0.801809 -2.909158
  H 6.693166 -1.373692 -0.911584
  H 6.136575 -2.431938 -3.723457
 17
 48.542503
  C 1.723656 -0.835688 -0.063024
  C 2.488422 0.243647 0.108393
  C 3.296226 0.553043 -1.056247
  C 4.570798 0.109864 -1.033128
  C 4.880941 -1.076322 -1.886329
  C 6.279654 -1.586895 -1.877646
  C 6.867730 -2.150191 -2.915772
  H 7.861687 -2.559910 -2.855512
  H 1.251535 -1.330525 0.770880
  H 4.215986 -1.779483 -1.316703
  H 1.327393 -1.093550 -1.031529
  H 2.838112 0.542563 1.088814
  H 2.772653 0.463723 -2.005051
  H 5.137648 0.191069 -0.118673
  H 4.467567 -1.012238 -2.897368
  H 6.816458 -1.458839 -0.947849
  H 6.367888 -2.247551 -3.870134
 17
 36.952584
  C 1.548558 -0.709035 0.056191
  C 2.462184 0.232616 0.122879
  C 3.278616 0.359157 -1.067508
  C 4.557999 -0.043952 -1.063545
  C 4.972982 -1.179042 -1.954053
  C 6.407784 -1.558134 -1.931799
  C 7.043386 -2.127820 -2.935869
  H 8.072921 -2.423673 -2.869015
  H 1.015196 -1.059157 0.925413
  H 4.370538 -1.973857 -1.444637
  H 1.157689 -1.039334 -0.898096
  H 2.861798 0.577370 1.067535
  H 2.730092 0.248771 -2.007730
  H 5.158103 0.098175 -0.168448
  H 4.590838 -1.081049 -2.977878
  H 6.909259 -1.419684 -0.981058
  H 6.542516 -2.344265 -3.871848
 17
 31.144921
  C 1.461472 -0.568114 0.163174
  C 2.426006 0.333389 0.102649
  C 3.274246 0.237494 -1.090012
  C 4.531434 -0.217566 -1.004832
  C 4.986807 -1.299223 -1.985235
  C 6.427738 -1.646512 -1.947473
  C 7.132375 -2.018395 -3.003526
  H 8.164098 -2.320511 -2.921289
  H 0.906451 -0.784394 1.061936
  H 4.383127 -2.118990 -1.564744
  H 1.171656 -1.115068 -0.727974
  H 2.772732 0.873090 0.958482
  H 2.734528 0.059905 -2.012328
  H 5.065370 -0.148355 -0.071440
  H 4.637408 -1.091840 -2.994307
  H 6.883873 -1.612951 -0.968325
  H 6.721139 -2.004871 -3.994221
