 14
 0.000000
  H 1.433180 -0.076312 0.038247
  C 2.507061 -0.081885 0.027307
  C 3.220982 -0.592715 -0.975538
  C 4.658670 -0.604880 -0.999418
  C 5.378177 -1.120174 -2.011022
  C 6.816060 -1.131842 -2.033928
  C 7.530173 -1.642415 -3.036275
  H 8.603787 -1.654602 -3.060197
  H 3.000772 0.354013 0.883050
  H 2.711179 -1.026295 -1.826718
  H 5.163501 -0.170297 -0.146265
  H 4.872858 -1.554613 -2.863900
  H 7.323130 -0.697586 -1.181412
  H 7.034662 -2.078090 -3.891569
 14
 0.841810
  H 1.457966 -0.085886 0.135502
  C 2.529889 -0.111784 0.055147
  C 3.183546 -0.567395 -1.012569
  C 4.621523 -0.585246 -1.041820
  C 5.361225 -1.117444 -2.028049
  C 6.800893 -1.123205 -2.037002
  C 7.532709 -1.659029 -3.010730
  H 8.612267 -1.644486 -2.991605
  H 3.129928 0.237398 0.878886
  H 2.666886 -0.947593 -1.880519
  H 5.125885 -0.098937 -0.216226
  H 4.871450 -1.589532 -2.870652
  H 7.286963 -0.655190 -1.190296
  H 7.073137 -2.129281 -3.867544
 14
 3.775944
  H 1.484067 -0.157035 0.216394
  C 2.550710 -0.178679 0.079834
  C 3.160055 -0.513773 -1.054352
  C 4.595650 -0.531902 -1.079125
  C 5.344751 -1.098254 -2.038198
  C 6.785407 -1.099482 -2.034649
  C 7.530258 -1.680394 -2.972906
  H 8.604727 -1.673917 -2.936404
  H 3.251705 0.066598 0.853284
  H 2.641677 -0.811501 -1.945208
  H 5.116951 0.003869 -0.294134
  H 4.862404 -1.621084 -2.857876
  H 7.265860 -0.588598 -1.200464
  H 7.080854 -2.191601 -3.808249
 14
 8.465697
  H 1.529620 -0.152752 0.315419
  C 2.575450 -0.185827 0.094383
  C 3.126366 -0.517013 -1.077838
  C 4.564953 -0.529092 -1.101829
  C 5.331339 -1.102986 -2.044335
  C 6.767351 -1.088338 -2.022919
  C 7.529532 -1.676494 -2.937266
  H 8.603432 -1.650950 -2.892482
  H 3.399120 0.018192 0.755939
  H 2.592987 -0.823646 -1.966441
  H 5.102088 0.041557 -0.353748
  H 4.867805 -1.648159 -2.858018
  H 7.233368 -0.559175 -1.200285
  H 7.095953 -2.201164 -3.772646
 14
 12.851081
  H 1.554076 -0.271905 0.355889
  C 2.595170 -0.240645 0.114763
  C 3.116506 -0.458456 -1.098840
  C 4.557584 -0.471095 -1.134621
  C 5.330509 -1.081389 -2.053718
  C 6.766545 -1.078623 -2.016155
  C 7.524786 -1.706523 -2.910635
  H 8.599032 -1.683181 -2.866419
  H 3.447439 -0.097640 0.747183
  H 2.567741 -0.720337 -1.984511
  H 5.105041 0.154090 -0.429013
  H 4.878896 -1.663218 -2.845879
  H 7.230520 -0.524215 -1.202125
  H 7.096824 -2.251528 -3.734442
 14
 14.295856
  H 1.586324 -0.319967 0.384366
  C 2.622401 -0.303078 0.138958
  C 3.112646 -0.423402 -1.107327
  C 4.545689 -0.436717 -1.175267
  C 5.325606 -1.099032 -2.053980
  C 6.758114 -1.088554 -1.997878
  C 7.535017 -1.715851 -2.883240
  H 8.606970 -1.654069 -2.840682
  H 3.497019 -0.237776 0.770611
  H 2.544893 -0.593592 -2.006441
  H 5.107201 0.258236 -0.559521
  H 4.873039 -1.730580 -2.807674
  H 7.206582 -0.517753 -1.198875
  H 7.114467 -2.252792 -3.725730
 14
 15.508317
  H 1.680698 -0.458786 0.484206
  C 2.698774 -0.452666 0.157146
  C 3.086745 -0.340993 -1.126521
  C 4.535655 -0.355426 -1.272104
  C 5.305963 -1.043662 -2.117899
  C 6.745964 -1.044595 -2.020151
  C 7.542978 -1.758904 -2.814693
  H 8.614365 -1.716394 -2.716795
  H 3.611129 -0.483969 0.742249
  H 2.449490 -0.361402 -2.001862
  H 5.062581 0.381937 -0.688499
  H 4.867714 -1.732611 -2.842144
  H 7.168674 -0.420467 -1.244735
  H 7.144969 -2.356242 -3.610455
 14
 16.316017
  H 1.726192 -0.620946 0.486497
  C 2.725458 -0.558127 0.105972
  C 3.101432 -0.293221 -1.143279
  C 4.554658 -0.270807 -1.258837
  C 5.329654 -1.003976 -2.076410
  C 6.774915 -1.016730 -2.032435
  C 7.535442 -1.792737 -2.796496
  H 8.604719 -1.770541 -2.742941
  H 3.615763 -0.697887 0.711047
  H 2.446125 -0.205287 -2.004147
  H 5.006922 0.555000 -0.718912
  H 4.850253 -1.691318 -2.779693
  H 7.231140 -0.357847 -1.319348
  H 7.100536 -2.462573 -3.522968
 14
 25.332169
  H 1.860911 -0.887975 0.504891
  C 2.815782 -0.680981 0.066653
  C 3.093360 -0.270174 -1.162000
  C 4.570000 -0.151249 -1.265885
  C 5.316712 -0.891751 -2.098448
  C 6.747944 -1.001103 -2.007172
  C 7.475948 -1.836885 -2.739077
  H 8.551703 -1.900375 -2.636759
  H 3.800806 -0.855199 0.484508
  H 2.417269 -0.040237 -1.971186
  H 4.958110 0.768167 -0.842385
  H 4.831153 -1.612731 -2.749344
  H 7.232795 -0.368893 -1.264165
  H 7.023016 -2.510728 -3.439878
 14
 51.026800
  H 2.029913 -0.956078 0.586411
  C 2.902637 -0.687618 0.045832
  C 3.061292 -0.216433 -1.216537
  C 4.522038 -0.166738 -1.254096
  C 5.277432 -0.922574 -2.067163
  C 6.702223 -1.052770 -1.926731
  C 7.464306 -1.824350 -2.701454
  H 8.534323 -1.878316 -2.581236
  H 4.023661 -0.836406 0.187677
  H 2.368836 0.013294 -1.999798
  H 4.930096 0.762840 -0.875707
  H 4.782641 -1.592808 -2.769233
  H 7.162393 -0.472061 -1.136707
  H 7.038072 -2.438425 -3.476966
