 29
 0.000000
  C 0.906010 0.046457 0.267943
  C 2.399161 0.058917 0.086999
  C 3.239998 -0.011475 1.354947
  C 2.523800 -0.088828 2.701200
  C 3.525114 -0.152284 3.849054
  C 2.997168 0.128525 -1.119698
  C 2.354306 0.205742 -2.492608
  C 0.843362 0.218478 -2.712768
  H 0.619940 0.277788 -3.769328
  C 4.455839 0.132084 -1.207305
  C 5.195985 0.194108 -2.315974
  O 6.555921 0.193501 -2.331540
  H 0.602243 -0.008691 1.308052
  H 0.462269 -0.821098 -0.215790
  H 0.462973 0.959870 -0.120549
  H 3.884826 0.873233 1.386101
  H 3.887600 -0.892028 1.286259
  H 1.892457 -0.979404 2.743108
  H 1.889732 0.789369 2.843329
  H 4.161751 -1.030745 3.761720
  H 3.001057 -0.207027 4.801141
  H 4.159017 0.732386 3.861565
  H 2.743093 -0.643206 -3.066061
  H 2.743510 1.113355 -2.967465
  H 0.388840 1.078281 -2.226702
  H 0.388425 -0.690033 -2.325834
  H 5.001581 0.078853 -0.275747
  H 4.818760 0.251561 -3.323629
  H 6.885965 0.141795 -1.424912
 29
 -0.422508
  C 0.905703 -0.137309 0.268962
  C 2.393359 -0.031631 0.091821
  C 3.239626 -0.054099 1.357244
  C 2.513510 -0.067720 2.701934
  C 3.518121 -0.010718 3.848752
  C 2.991517 0.063627 -1.116682
  C 2.351326 0.225759 -2.485549
  C 0.843410 0.323785 -2.692595
  H 0.660725 0.526495 -3.747650
  C 4.449858 0.055632 -1.214975
  C 5.188707 0.171338 -2.315483
  O 6.549032 0.127375 -2.330914
  H 0.652100 -0.508239 1.254958
  H 0.489230 -0.830165 -0.453401
  H 0.423311 0.831563 0.148477
  H 3.878859 0.834609 1.349696
  H 3.895986 -0.930315 1.333028
  H 1.921511 -0.978745 2.808653
  H 1.844525 0.791888 2.775027
  H 4.190067 -0.866073 3.813355
  H 3.003156 -0.020805 4.806806
  H 4.116189 0.896660 3.792133
  H 2.715988 -0.596916 -3.109185
  H 2.780624 1.146560 -2.894719
  H 0.411470 1.137149 -2.118803
  H 0.331506 -0.601553 -2.449168
  H 4.999250 -0.082051 -0.294305
  H 4.812227 0.313368 -3.315071
  H 6.879947 -0.000073 -1.432153
 29
 0.093567
  C 0.951976 -0.343102 0.259060
  C 2.421329 -0.085495 0.093427
  C 3.259784 -0.038522 1.357976
  C 2.498446 -0.007019 2.682767
  C 3.465453 0.133041 3.853862
  C 3.001248 0.011406 -1.119356
  C 2.345550 0.267535 -2.467999
  C 0.843314 0.471325 -2.642674
  H 0.666517 0.778728 -3.673241
  C 4.456769 -0.006590 -1.238407
  C 5.191703 0.141907 -2.342197
  O 6.547761 0.050199 -2.375078
  H 0.777678 -0.997061 1.108772
  H 0.592888 -0.859414 -0.620442
  H 0.385464 0.573240 0.413852
  H 3.879468 0.862671 1.315883
  H 3.937889 -0.898478 1.384696
  H 1.924785 -0.925296 2.816160
  H 1.804181 0.835166 2.690387
  H 4.160302 -0.704301 3.879157
  H 2.923009 0.154958 4.796359
  H 4.041707 1.052266 3.769329
  H 2.658669 -0.529674 -3.149733
  H 2.816544 1.190469 -2.822275
  H 0.470550 1.256477 -1.991602
  H 0.268895 -0.435060 -2.479009
  H 5.007447 -0.214640 -0.329996
  H 4.811358 0.352066 -3.327981
  H 6.881838 -0.137201 -1.488227
 29
 2.566575
  C 1.039921 -0.631324 0.231348
  C 2.460102 -0.171324 0.087374
  C 3.272971 -0.015560 1.355476
  C 2.455017 0.082957 2.642729
  C 3.365172 0.277363 3.850368
  C 3.022933 -0.057249 -1.134464
  C 2.343012 0.333090 -2.438701
  C 0.852140 0.649634 -2.519095
  H 0.650872 1.066382 -3.505422
  C 4.475743 -0.084511 -1.276911
  C 5.198155 0.083763 -2.393542
  O 6.549542 -0.056743 -2.460936
  H 1.025248 -1.507038 0.881322
  H 0.723269 -0.972713 -0.744210
  H 0.365695 0.111420 0.648656
  H 3.869056 0.897203 1.263718
  H 3.975836 -0.849925 1.465449
  H 1.865697 -0.822954 2.788378
  H 1.766219 0.927128 2.574333
  H 4.050410 -0.561935 3.952823
  H 2.778363 0.352504 4.763076
  H 3.953257 1.187043 3.745930
  H 2.581555 -0.410617 -3.205488
  H 2.856786 1.257540 -2.721443
  H 0.570368 1.389749 -1.774888
  H 0.217002 -0.223536 -2.408136
  H 5.030367 -0.352218 -0.384978
  H 4.802658 0.343333 -3.361751
  H 6.894127 -0.293352 -1.590013
 29
 10.588661
  C 1.137928 -0.845538 0.171370
  C 2.500796 -0.222135 0.084326
  C 3.261735 0.102912 1.346739
  C 2.419234 0.054055 2.620906
  C 3.248314 0.431920 3.843219
  C 3.045596 -0.130748 -1.152929
  C 2.357493 0.442177 -2.384882
  C 0.881076 0.827517 -2.354114
  H 0.643198 1.337791 -3.285737
  C 4.489162 -0.223321 -1.331578
  C 5.191189 -0.020993 -2.442947
  O 6.526343 -0.269252 -2.567474
  H 1.259955 -1.831273 0.631263
  H 0.898761 -1.083663 -0.862310
  H 0.382995 -0.299498 0.726343
  H 3.685545 1.105629 1.235132
  H 4.109426 -0.581413 1.479104
  H 2.013392 -0.950050 2.758412
  H 1.580285 0.746785 2.530272
  H 4.089126 -0.248808 3.961839
  H 2.642428 0.387607 4.745452
  H 3.639540 1.442599 3.743123
  H 2.530412 -0.205053 -3.250399
  H 2.910716 1.370014 -2.560749
  H 0.679499 1.507959 -1.529813
  H 0.212849 -0.023203 -2.270895
  H 5.038446 -0.598869 -0.473821
  H 4.788415 0.345176 -3.373620
  H 6.869319 -0.616630 -1.733080
 29
 26.021754
  C 1.272683 -1.104379 0.076909
  C 2.576972 -0.357391 0.082671
  C 3.270619 0.100279 1.336821
  C 2.344207 0.146470 2.551933
  C 3.092444 0.587119 3.803727
  C 3.076542 -0.249375 -1.183149
  C 2.363255 0.543173 -2.274079
  C 0.916024 0.969421 -2.060034
  H 0.606515 1.579355 -2.903759
  C 4.509992 -0.343559 -1.415964
  C 5.176612 -0.071737 -2.530066
  O 6.508290 -0.339095 -2.724393
  H 1.447091 -2.148338 0.375848
  H 1.207923 -1.284011 -1.010928
  H 0.450152 -0.698370 0.655217
  H 3.693127 1.094117 1.151994
  H 4.117607 -0.556951 1.576517
  H 1.915728 -0.846381 2.719401
  H 1.523120 0.841057 2.357934
  H 3.905079 -0.101706 4.026315
  H 2.422829 0.615035 4.660963
  H 3.514552 1.579832 3.667787
  H 2.426415 0.013502 -3.233095
  H 2.961474 1.452516 -2.362689
  H 0.823325 1.563854 -1.151125
  H 0.233974 0.131054 -1.988954
  H 5.075504 -0.804981 -0.607360
  H 4.743450 0.365793 -3.417496
  H 6.886364 -0.712829 -1.910227
 29
 51.526924
  C 1.378353 -1.154409 0.019870
  C 2.592030 -0.322992 0.119853
  C 3.213354 0.233329 1.342296
  C 2.333587 0.082811 2.579378
  C 3.002655 0.651807 3.822264
  C 3.082403 -0.269758 -1.173982
  C 2.391506 0.610529 -2.211873
  C 0.962651 1.052263 -1.929023
  H 0.648974 1.751760 -2.701662
  C 4.484233 -0.453341 -1.459246
  C 5.133911 -0.193829 -2.607183
  O 6.437271 -0.509603 -2.849136
  H 1.570945 -2.237443 0.088771
  H 1.557138 -1.244211 -1.131848
  H 0.519749 -0.898724 0.626187
  H 3.462178 1.284749 1.176656
  H 4.165077 -0.283850 1.531744
  H 2.081765 -0.968369 2.729017
  H 1.393938 0.617431 2.409273
  H 3.937699 0.132468 4.026548
  H 2.355194 0.544818 4.688949
  H 3.223525 1.708410 3.686070
  H 2.425119 0.136871 -3.197257
  H 3.010889 1.510103 -2.263982
  H 0.900008 1.550270 -0.964253
  H 0.267956 0.217203 -1.929762
  H 5.049145 -0.942511 -0.668433
  H 4.697543 0.298375 -3.461321
  H 6.818779 -0.923968 -2.061989
 29
 71.519049
  C 1.388138 -1.202108 0.051440
  C 2.537246 -0.376542 0.127088
  C 3.183288 0.218810 1.333176
  C 2.326823 0.126145 2.593340
  C 3.050434 0.694886 3.807415
  C 3.029435 -0.324480 -1.221879
  C 2.367754 0.654222 -2.206045
  C 0.918810 1.027850 -1.927783
  H 0.587781 1.756687 -2.664440
  C 4.461155 -0.515084 -1.465407
  C 5.154175 -0.171738 -2.552196
  O 6.470032 -0.454909 -2.758736
  H 1.514033 -2.271478 -0.058943
  H 1.853364 -1.206283 -1.337404
  H 0.519451 -0.986614 0.677626
  H 3.446770 1.264408 1.140748
  H 4.129208 -0.310191 1.507543
  H 2.066250 -0.918614 2.776026
  H 1.396947 0.676894 2.437405
  H 3.973859 0.149809 3.993101
  H 2.425808 0.622613 4.694825
  H 3.298978 1.742241 3.647994
  H 2.448714 0.258194 -3.220970
  H 2.964425 1.572643 -2.167914
  H 0.819220 1.467234 -0.938465
  H 0.262340 0.162828 -1.984768
  H 4.985266 -1.064297 -0.688376
  H 4.744448 0.361918 -3.394310
  H 6.817803 -0.939135 -1.998403
 29
 55.560820
  C 1.378072 -1.242923 0.133250
  C 2.445791 -0.393731 0.166658
  C 3.107586 0.211155 1.336064
  C 2.307227 0.128192 2.635453
  C 3.066420 0.741800 3.807330
  C 2.998418 -0.346888 -1.239508
  C 2.379975 0.714414 -2.204582
  C 0.911438 1.030921 -1.950720
  H 0.575844 1.789910 -2.653686
  C 4.430949 -0.580568 -1.479121
  C 5.144179 -0.181464 -2.522208
  O 6.458388 -0.480335 -2.730870
  H 1.514804 -2.274850 -0.121870
  H 2.129950 -1.094180 -1.510534
  H 0.564570 -1.149877 0.841621
  H 3.385109 1.251151 1.137030
  H 4.054813 -0.330435 1.458106
  H 2.046498 -0.908489 2.848400
  H 1.372783 0.677303 2.500985
  H 4.010886 0.224651 3.965235
  H 2.479724 0.688598 4.720687
  H 3.294159 1.786603 3.603263
  H 2.503807 0.351616 -3.227293
  H 2.950123 1.643551 -2.122598
  H 0.770894 1.417074 -0.944054
  H 0.288212 0.149538 -2.066428
  H 4.916567 -1.220356 -0.745632
  H 4.768123 0.447242 -3.312728
  H 6.778342 -1.050414 -2.015836
 29
 36.619576
  C 1.329839 -1.326925 0.158143
  C 2.392318 -0.484249 0.101306
  C 3.088710 0.178758 1.235553
  C 2.296638 0.199085 2.547968
  C 3.140198 0.797174 3.673165
  C 2.953847 -0.430680 -1.317178
  C 2.373863 0.756954 -2.123139
  C 0.896361 1.034042 -1.863033
  H 0.573622 1.874071 -2.474918
  C 4.430509 -0.597113 -1.434001
  C 5.187956 -0.208024 -2.457940
  O 6.527503 -0.432234 -2.571422
  H 1.352210 -2.341248 -0.192456
  H 2.231077 -1.251300 -1.619537
  H 0.510689 -1.141216 0.839102
  H 3.348981 1.211508 0.971972
  H 4.036804 -0.346447 1.382006
  H 2.089122 -0.839901 2.810743
  H 1.372813 0.757048 2.423102
  H 4.059297 0.229409 3.803351
  H 2.594870 0.769873 4.613380
  H 3.396176 1.832754 3.459318
  H 2.517152 0.529109 -3.180544
  H 2.951895 1.652642 -1.879870
  H 0.720550 1.285185 -0.820982
  H 0.284501 0.174477 -2.123391
  H 4.865722 -1.283716 -0.713546
  H 4.839798 0.431030 -3.261262
  H 6.835933 -0.948854 -1.810198
 29
 20.463842
  C 1.296646 -1.312851 0.210195
  C 2.331170 -0.477623 0.097184
  C 3.034775 0.247107 1.202271
  C 2.354121 0.163747 2.565664
  C 3.205679 0.812421 3.650443
  C 2.919366 -0.439896 -1.305356
  C 2.394713 0.781038 -2.106233
  C 0.903067 1.035132 -1.941554
  H 0.616062 1.917326 -2.509768
  C 4.387280 -0.656790 -1.417833
  C 5.183701 -0.216864 -2.386180
  O 6.518930 -0.471957 -2.479805
  H 1.280960 -2.282202 -0.258979
  H 2.239522 -1.217903 -1.708765
  H 0.557839 -1.243850 1.001823
  H 3.204737 1.298124 0.941348
  H 4.022585 -0.221426 1.267562
  H 2.163426 -0.880529 2.815497
  H 1.392844 0.680659 2.514204
  H 4.163786 0.305185 3.741361
  H 2.701128 0.766178 4.612471
  H 3.394758 1.856849 3.413246
  H 2.628461 0.625072 -3.157544
  H 2.933793 1.676109 -1.776491
  H 0.649638 1.200606 -0.898840
  H 0.321030 0.189191 -2.304151
  H 4.814001 -1.297652 -0.652178
  H 4.860166 0.411454 -3.199438
  H 6.786691 -1.062845 -1.763883
 29
 6.818145
  C 1.296210 -1.425763 0.244662
  C 2.322560 -0.598991 0.063570
  C 3.039352 0.168993 1.135182
  C 2.358148 0.183680 2.500136
  C 3.189715 0.941321 3.526737
  C 2.884083 -0.500183 -1.340978
  C 2.411847 0.799727 -2.026040
  C 0.931768 1.093467 -1.821611
  H 0.663982 2.014494 -2.334858
  C 4.354947 -0.737544 -1.438799
  C 5.194825 -0.160699 -2.285588
  O 6.527055 -0.426861 -2.371513
  H 1.132393 -2.291213 -0.377134
  H 2.292879 -1.280849 -1.847996
  H 0.668855 -1.411281 1.123723
  H 3.213074 1.199498 0.809032
  H 4.024452 -0.299519 1.231842
  H 2.202268 -0.841540 2.841254
  H 1.377214 0.656553 2.409505
  H 4.167462 0.479970 3.642600
  H 2.695171 0.942424 4.494561
  H 3.334458 1.972982 3.215734
  H 2.613425 0.709465 -3.094807
  H 2.999429 1.641089 -1.650006
  H 0.698038 1.208030 -0.766792
  H 0.320389 0.287046 -2.220180
  H 4.740995 -1.490312 -0.758635
  H 4.911573 0.594891 -3.002451
  H 6.764724 -1.104243 -1.724682
 29
 -0.259911
  C 1.291773 -1.447185 0.286399
  C 2.313682 -0.638476 0.054942
  C 3.035501 0.163501 1.099636
  C 2.400119 0.165481 2.486777
  C 3.234318 0.975071 3.472580
  C 2.851144 -0.522358 -1.358280
  C 2.409626 0.808499 -1.996372
  C 0.918038 1.077861 -1.844289
  H 0.660659 2.021875 -2.319570
  C 4.330025 -0.754431 -1.426638
  C 5.200921 -0.104433 -2.183135
  O 6.534353 -0.364884 -2.242125
  H 0.941748 -2.146246 -0.455217
  H 2.319517 -1.308112 -1.912930
  H 0.756029 -1.473816 1.219745
  H 3.141720 1.196610 0.755701
  H 4.048355 -0.245206 1.173287
  H 2.311419 -0.860797 2.848074
  H 1.396232 0.590836 2.427508
  H 4.238076 0.562663 3.552304
  H 2.779208 0.962748 4.460289
  H 3.315630 2.010233 3.147168
  H 2.650027 0.768110 -3.060570
  H 2.978117 1.631685 -1.558922
  H 0.634060 1.130256 -0.796659
  H 0.337298 0.287125 -2.314151
  H 4.688363 -1.567486 -0.803006
  H 4.945545 0.716470 -2.833509
  H 6.748328 -1.094527 -1.646915
 29
 -1.285026
  C 1.365411 -1.546077 0.300603
  C 2.335283 -0.681344 0.046306
  C 3.006712 0.196463 1.061620
  C 2.415928 0.146082 2.466135
  C 3.169638 1.072217 3.410572
  C 2.828508 -0.547009 -1.387677
  C 2.442073 0.829403 -1.949314
  C 0.961640 1.140937 -1.767879
  H 0.699825 2.048717 -2.306394
  C 4.288652 -0.852729 -1.499953
  C 5.217781 -0.102170 -2.072332
  O 6.531661 -0.434810 -2.184869
  H 0.999395 -2.199328 -0.475125
  H 2.238589 -1.282525 -1.957011
  H 0.865243 -1.659308 1.243006
  H 2.984415 1.232699 0.713019
  H 4.062230 -0.098326 1.099265
  H 2.478015 -0.874743 2.845840
  H 1.362249 0.431755 2.433856
  H 4.222445 0.802917 3.445960
  H 2.762959 1.006257 4.417903
  H 3.093340 2.107962 3.078784
  H 2.670207 0.833566 -3.018772
  H 3.044203 1.607565 -1.477344
  H 0.715598 1.278442 -0.717576
  H 0.352617 0.325752 -2.151458
  H 4.579600 -1.807080 -1.069705
  H 5.035034 0.867975 -2.506627
  H 6.680581 -1.302189 -1.788711
 29
 -2.773745
  C 1.352025 -1.550773 0.340522
  C 2.286398 -0.665869 0.031953
  C 2.976082 0.223432 1.030084
  C 2.505551 0.088544 2.475863
  C 3.253738 1.055751 3.388364
  C 2.762859 -0.517826 -1.402298
  C 2.423801 0.858753 -1.985786
  C 0.929048 1.151690 -1.906410
  H 0.700909 2.097157 -2.395112
  C 4.225904 -0.859207 -1.469547
  C 5.202657 -0.095871 -1.933870
  O 6.515693 -0.445913 -1.978185
  H 0.895779 -2.171026 -0.413524
  H 2.226404 -1.267187 -1.999706
  H 0.992094 -1.696969 1.341812
  H 2.847261 1.263487 0.717874
  H 4.049925 0.015530 0.982956
  H 2.672036 -0.934315 2.822316
  H 1.434717 0.295781 2.532317
  H 4.325510 0.865861 3.351240
  H 2.921996 0.945131 4.418550
  H 3.078952 2.084663 3.081684
  H 2.738370 0.877805 -3.031306
  H 2.977477 1.635672 -1.456947
  H 0.601174 1.209083 -0.870900
  H 0.359984 0.364682 -2.398270
  H 4.468083 -1.843737 -1.083509
  H 5.060596 0.895019 -2.333828
  H 6.624811 -1.338280 -1.624217
