 20
 0.000000
  C 0.993291 0.155352 0.437591
  C 2.456031 0.124498 0.360537
  H 3.040074 0.463108 1.203354
  C 3.056842 -0.337754 -0.790502
  C 4.436401 -0.417688 -0.990363
  C 5.128300 -0.869263 -2.115859
  C 4.635258 -1.391187 -3.416682
  C 3.148472 -1.509188 -3.711261
  H 3.021463 -1.910872 -4.712445
  O 6.443031 -0.859963 -2.093013
  H 0.629507 0.536605 1.386988
  H 0.588093 -0.846384 0.281819
  H 0.587885 0.771090 -0.367695
  H 2.397411 -0.655396 -1.580841
  H 5.053299 -0.084788 -0.161587
  H 5.101494 -2.375607 -3.539811
  H 5.101843 -0.765217 -4.186173
  H 2.661927 -0.538214 -3.679265
  H 2.661730 -2.188683 -3.017086
  H 6.834289 -0.527662 -1.262610
 20
 8.776271
  C 1.064222 0.235365 0.634955
  C 2.505616 0.060840 0.204932
  H 3.228990 0.351734 0.936175
  C 2.838770 -0.419678 -0.995518
  C 4.213275 -0.440273 -1.044279
  C 5.056234 -0.858256 -2.088659
  C 4.707094 -1.395699 -3.427511
  C 3.251889 -1.560847 -3.836580
  H 3.223300 -1.965514 -4.844628
  O 6.356526 -0.792220 -1.929530
  H 0.978872 0.634472 1.635294
  H 0.546917 -0.716736 0.577305
  H 0.550774 0.888911 -0.062711
  H 2.154189 -0.718974 -1.746968
  H 4.752250 -0.094627 -0.176484
  H 5.219656 -2.361345 -3.510790
  H 5.218643 -0.755020 -4.155464
  H 2.732316 -0.607953 -3.853370
  H 2.733256 -2.261344 -3.189537
  H 6.654200 -0.448382 -1.077304
 20
 38.746663
  C 1.130045 0.262064 0.700669
  C 2.579223 0.021175 0.107185
  H 3.308990 0.308460 0.833958
  C 2.725049 -0.460999 -1.099113
  C 4.090329 -0.438739 -1.040470
  C 4.994413 -0.846038 -2.060176
  C 4.722152 -1.389082 -3.410879
  C 3.297107 -1.583388 -3.891532
  H 3.328279 -1.989632 -4.899984
  O 6.287728 -0.755758 -1.842723
  H 1.171875 0.661475 1.707167
  H 0.577792 -0.684056 0.695836
  H 0.584089 0.951203 0.047126
  H 2.015394 -0.752381 -1.833742
  H 4.648772 -0.100155 -0.184899
  H 5.257373 -2.346508 -3.469051
  H 5.256451 -0.738037 -4.115845
  H 2.760131 -0.639632 -3.936651
  H 2.760863 -2.295149 -3.269616
  H 6.548142 -0.402979 -0.969269
 20
 80.087254
  C 1.158069 0.270187 0.710898
  C 2.663370 -0.007653 0.034110
  H 3.322884 0.297381 0.807174
  C 2.674749 -0.499616 -1.170916
  C 4.039434 -0.427856 -1.013438
  C 4.977758 -0.834345 -2.035199
  C 4.723563 -1.381300 -3.394313
  C 3.303003 -1.579766 -3.887131
  H 3.345433 -1.986664 -4.897838
  O 6.266138 -0.739455 -1.801616
  H 1.248921 0.664852 1.705633
  H 0.614817 -0.678600 0.722236
  H 0.618033 0.971755 0.069327
  H 1.951492 -0.792292 -1.897392
  H 4.649170 -0.107869 -0.192259
  H 5.265716 -2.336976 -3.447843
  H 5.266183 -0.727473 -4.092738
  H 2.761161 -0.636284 -3.938158
  H 2.762829 -2.296084 -3.269507
  H 6.521346 -0.381220 -0.919673
 20
 114.692147
  C 1.103917 0.305534 0.707291
  C 2.766954 -0.027046 -0.033796
  H 3.319383 0.336610 0.810716
  C 2.643052 -0.598368 -1.180709
  C 4.074516 -0.424085 -1.003675
  C 4.962359 -0.811171 -1.999081
  C 4.719489 -1.369134 -3.372975
  C 3.292407 -1.556162 -3.891910
  H 3.348677 -1.959179 -4.901782
  O 6.285483 -0.749891 -1.790603
  H 1.266886 0.705115 1.689152
  H 0.666161 -0.684181 0.722574
  H 0.577414 0.995006 0.062488
  H 1.927346 -0.923539 -1.889002
  H 4.706228 -0.145785 -0.177236
  H 5.248400 -2.326070 -3.416505
  H 5.263510 -0.698401 -4.046765
  H 2.758413 -0.609958 -3.947703
  H 2.742610 -2.276535 -3.289948
  H 6.561422 -0.382042 -0.933282
 20
 132.742410
  C 0.961799 0.343885 0.801420
  C 2.865781 -0.048069 -0.087286
  H 3.316039 0.367764 0.782701
  C 2.621195 -0.624520 -1.193681
  C 4.141517 -0.430354 -1.019204
  C 4.987377 -0.812829 -2.014836
  C 4.739275 -1.366121 -3.391272
  C 3.324336 -1.550652 -3.899633
  H 3.377510 -1.954359 -4.910702
  O 6.328727 -0.775227 -1.826818
  H 1.190199 0.755466 1.763913
  H 0.573762 -0.658596 0.813596
  H 0.476810 1.008866 0.113675
  H 1.905345 -0.961017 -1.893327
  H 4.785505 -0.157625 -0.184110
  H 5.264996 -2.324828 -3.430737
  H 5.281280 -0.697036 -4.066969
  H 2.791417 -0.604278 -3.945783
  H 2.779148 -2.272153 -3.294322
  H 6.621906 -0.420738 -0.970864
 20
 134.528024
  C 0.685621 0.403266 0.912439
  C 3.018785 -0.051387 -0.108222
  H 3.265499 0.390289 0.826679
  C 2.687498 -0.685824 -1.133833
  C 4.297717 -0.439836 -1.025051
  C 5.074815 -0.826103 -2.058849
  C 4.766379 -1.373829 -3.427784
  C 3.335086 -1.525058 -3.912223
  H 3.361678 -1.929732 -4.920642
  O 6.417698 -0.822862 -1.923242
  H 0.949778 0.838766 1.854719
  H 0.384914 -0.624610 0.916659
  H 0.290000 1.042618 0.151241
  H 1.978199 -1.075757 -1.817024
  H 4.954251 -0.137751 -0.206892
  H 5.271455 -2.342883 -3.481206
  H 5.312060 -0.721059 -4.117738
  H 2.822888 -0.567678 -3.950663
  H 2.782648 -2.232538 -3.301987
  H 6.757425 -0.473822 -1.084278
 20
 135.781757
  C 0.463346 0.487225 1.035495
  C 3.118983 -0.069832 -0.135839
  H 3.305423 0.371537 0.813351
  C 2.721367 -0.725504 -1.111579
  C 4.381506 -0.461039 -1.023977
  C 5.131005 -0.848894 -2.091302
  C 4.803252 -1.370599 -3.469937
  C 3.365946 -1.538712 -3.932907
  H 3.382779 -1.906548 -4.954832
  O 6.475059 -0.830261 -1.987694
  H 0.759504 0.927741 1.964631
  H 0.184485 -0.545775 1.032622
  H 0.106779 1.122497 0.253175
  H 2.038610 -1.145864 -1.804783
  H 5.042789 -0.193713 -0.201996
  H 5.313157 -2.334369 -3.547022
  H 5.327834 -0.694800 -4.153500
  H 2.831624 -0.592121 -3.930238
  H 2.842212 -2.280375 -3.338281
  H 6.831147 -0.480975 -1.155190
 20
 135.881981
  C 0.286665 0.553381 1.110283
  C 3.208684 -0.096716 -0.176206
  H 3.370266 0.348296 0.779671
  C 2.748409 -0.775440 -1.112837
  C 4.456022 -0.484949 -1.028750
  C 5.180283 -0.860055 -2.108461
  C 4.821929 -1.343063 -3.489903
  C 3.377916 -1.541249 -3.912040
  H 3.381675 -1.874226 -4.947029
  O 6.525388 -0.827734 -2.035227
  H 0.596251 1.000201 2.030130
  H 0.010599 -0.478876 1.107500
  H -0.047628 1.188308 0.319320
  H 2.073407 -1.212215 -1.794945
  H 5.126574 -0.264424 -0.201451
  H 5.340390 -2.299525 -3.591897
  H 5.324872 -0.661138 -4.181267
  H 2.814878 -0.612521 -3.877010
  H 2.897418 -2.325013 -3.335263
  H 6.898023 -0.483876 -1.203564
 20
 135.091005
  C 0.103497 0.609858 1.165377
  C 3.299994 -0.113938 -0.208381
  H 3.429375 0.370422 0.735664
  C 2.783482 -0.847203 -1.077537
  C 4.539750 -0.502790 -1.025137
  C 5.231355 -0.878583 -2.128997
  C 4.841673 -1.343623 -3.507156
  C 3.385831 -1.518005 -3.896688
  H 3.358727 -1.809509 -4.944380
  O 6.573860 -0.841855 -2.088691
  H 0.413525 1.092712 2.065826
  H -0.149831 -0.429026 1.194667
  H -0.227700 1.209644 0.347939
  H 2.109195 -1.334949 -1.723670
  H 5.227846 -0.306097 -0.203238
  H 5.359348 -2.296655 -3.633982
  H 5.314079 -0.631933 -4.186885
  H 2.831820 -0.587721 -3.811358
  H 2.915483 -2.320670 -3.337950
  H 6.966150 -0.499545 -1.268113
 20
 109.227331
  C 0.243301 0.342827 0.368008
  C 3.444283 -0.065475 -0.151306
  H 3.245863 0.766011 0.481679
  C 3.383067 -1.285174 -0.539135
  C 4.762236 -0.562466 -0.861058
  C 5.271002 -0.933118 -2.104761
  C 4.539704 -1.213232 -3.365617
  C 3.030419 -1.003671 -3.455912
  H 2.733347 -1.186337 -4.486395
  O 6.561902 -1.050583 -2.269404
  H 0.275546 1.195122 1.008732
  H 0.243296 -0.636180 0.788945
  H 0.041765 0.479667 -0.672330
  H 2.867796 -2.157625 -0.845870
  H 5.499145 -0.398542 -0.077335
  H 4.803037 -2.217372 -3.705622
  H 5.028627 -0.546471 -4.088269
  H 2.741020 0.014964 -3.203425
  H 2.469358 -1.703026 -2.846336
  H 7.122744 -0.818784 -1.507280
