 29
 0.000000
  H 1.432071 0.156624 0.442288
  C 2.509744 0.143972 0.410380
  C 3.278067 0.611171 1.572399
  C 2.454591 1.090009 2.763865
  C 3.362882 1.547338 3.901620
  C 3.085038 -0.324546 -0.755974
  C 4.459213 -0.415400 -0.983506
  C 5.130247 -0.870672 -2.119055
  C 4.613096 -1.389404 -3.412394
  C 3.119684 -1.501202 -3.691626
  C 2.897302 -2.063602 -5.093689
  O 6.444848 -0.869311 -2.116420
  H 3.938643 1.427115 1.254853
  H 3.938864 -0.197393 1.907834
  H 1.814082 0.283942 3.125653
  H 1.814032 1.922230 2.467206
  H 3.998140 0.733688 4.244152
  H 2.769402 1.886950 4.746678
  H 3.998106 2.371730 3.585725
  H 2.406885 -0.636118 -1.531144
  H 5.100056 -0.089619 -0.172615
  H 5.070771 -2.377290 -3.544025
  H 5.071177 -0.766600 -4.190238
  H 2.647706 -0.519891 -3.636688
  H 2.647523 -2.172461 -2.973831
  H 3.338098 -1.416282 -5.848053
  H 1.833894 -2.147191 -5.302323
  H 3.338059 -3.052843 -5.191568
  H 6.845024 -0.538086 -1.289353
 29
 -0.105257
  H 1.526764 -0.150424 0.641083
  C 2.594138 -0.059087 0.504205
  C 3.337219 0.590231 1.589865
  C 2.458928 1.066975 2.743224
  C 3.290330 1.727358 3.837909
  C 3.124459 -0.556662 -0.667385
  C 4.488560 -0.528422 -0.971104
  C 5.152353 -1.015999 -2.099387
  C 4.615704 -1.419839 -3.423644
  C 3.121214 -1.502077 -3.681099
  C 2.867719 -1.871320 -5.141741
  O 6.462406 -1.109524 -2.072124
  H 3.904080 1.442133 1.192929
  H 4.095188 -0.099861 1.979810
  H 1.915304 0.219779 3.167467
  H 1.720474 1.782209 2.372499
  H 4.017222 1.030692 4.247807
  H 2.649814 2.061710 4.652245
  H 3.821388 2.592637 3.453302
  H 2.437484 -1.003110 -1.364002
  H 5.133878 -0.129607 -0.199782
  H 5.081301 -2.382002 -3.674100
  H 5.052953 -0.714300 -4.141175
  H 2.647332 -0.541998 -3.480176
  H 2.671132 -2.269340 -3.051680
  H 3.285378 -1.123964 -5.811357
  H 1.797937 -1.936510 -5.335095
  H 3.312443 -2.833508 -5.383425
  H 6.887332 -0.851797 -1.227971
 29
 1.086736
  H 1.556752 -0.343063 0.739619
  C 2.605795 -0.162517 0.549981
  C 3.330363 0.611936 1.566002
  C 2.460734 1.058470 2.738312
  C 3.269266 1.856414 3.755507
  C 3.133505 -0.679151 -0.612979
  C 4.474599 -0.551699 -0.978794
  C 5.152096 -1.097532 -2.074491
  C 4.630430 -1.399374 -3.430068
  C 3.127998 -1.473451 -3.674217
  C 2.852954 -1.714100 -5.156189
  O 6.445912 -1.285398 -1.992582
  H 3.784256 1.494869 1.099339
  H 4.172613 0.023956 1.949945
  H 2.028389 0.184918 3.229810
  H 1.637124 1.674319 2.372379
  H 4.083750 1.259259 4.159323
  H 2.637547 2.165431 4.584441
  H 3.688943 2.751590 3.302121
  H 2.466164 -1.230195 -1.253839
  H 5.115048 -0.048275 -0.262118
  H 5.107101 -2.325329 -3.767722
  H 5.049026 -0.619310 -4.079798
  H 2.647520 -0.541021 -3.377239
  H 2.695996 -2.297502 -3.106022
  H 3.256944 -0.907883 -5.763794
  H 1.782706 -1.768356 -5.337513
  H 3.298220 -2.649005 -5.488119
  H 6.843425 -1.156398 -1.109760
 29
 4.407158
  H 1.691186 -0.730495 0.939822
  C 2.682306 -0.409512 0.649570
  C 3.326149 0.598998 1.506969
  C 2.460241 1.047541 2.681762
  C 3.177176 2.090772 3.531770
  C 3.227005 -0.977520 -0.479045
  C 4.513258 -0.712756 -0.943316
  C 5.187132 -1.264543 -2.047724
  C 4.661785 -1.360984 -3.422932
  C 3.147025 -1.395237 -3.616113
  C 2.806383 -1.371884 -5.102093
  O 6.430822 -1.634255 -1.928751
  H 3.594684 1.474827 0.906199
  H 4.274473 0.205729 1.893022
  H 2.211185 0.185837 3.305455
  H 1.524237 1.469758 2.309252
  H 4.102134 1.690496 3.939193
  H 2.549286 2.399949 4.364700
  H 3.413444 2.973385 2.944241
  H 2.628874 -1.699670 -1.010561
  H 5.132170 -0.066158 -0.331690
  H 5.131055 -2.212228 -3.914080
  H 5.054196 -0.474626 -3.940129
  H 2.682868 -0.535657 -3.131983
  H 2.738646 -2.306952 -3.179931
  H 3.178959 -0.463970 -5.574057
  H 1.726107 -1.407371 -5.242869
  H 3.241498 -2.228412 -5.614980
  H 6.782901 -1.657262 -1.016713
 29
 11.268093
  H 1.895129 -1.086974 1.215520
  C 2.784984 -0.645163 0.792464
  C 3.313769 0.558405 1.461342
  C 2.481404 0.999300 2.663985
  C 3.069426 2.244324 3.318686
  C 3.340397 -1.255347 -0.311441
  C 4.503560 -0.838895 -0.932394
  C 5.193586 -1.429198 -2.031236
  C 4.687057 -1.383806 -3.416779
  C 3.172937 -1.244630 -3.575601
  C 2.804934 -1.098350 -5.047739
  O 6.367226 -1.946273 -1.879167
  H 3.368420 1.385465 0.744558
  H 4.343575 0.376478 1.789734
  H 2.440893 0.192582 3.398509
  H 1.458738 1.210054 2.345391
  H 4.082011 2.056422 3.668979
  H 2.468452 2.545281 4.173214
  H 3.096241 3.074945 2.616796
  H 2.840482 -2.128645 -0.704535
  H 5.042623 0.003378 -0.506930
  H 5.063122 -2.249353 -3.968914
  H 5.167391 -0.510822 -3.878420
  H 2.815502 -0.373210 -3.026585
  H 2.678064 -2.128230 -3.173653
  H 3.264731 -0.212263 -5.478645
  H 1.727854 -1.007965 -5.160294
  H 3.130775 -1.964948 -5.618009
  H 6.679401 -2.076545 -0.959939
 29
 17.304568
  H 2.196950 -1.367856 1.503467
  C 2.954157 -0.839693 0.945594
  C 3.306756 0.523264 1.407153
  C 2.506500 0.967256 2.630103
  C 2.901195 2.371051 3.074515
  C 3.530412 -1.480816 -0.131756
  C 4.529833 -0.948964 -0.916476
  C 5.188634 -1.583881 -2.033159
  C 4.679095 -1.421014 -3.400986
  C 3.201797 -1.035581 -3.512719
  C 2.821553 -0.796704 -4.969468
  O 6.223217 -2.308144 -1.891170
  H 3.144498 1.242753 0.596434
  H 4.375143 0.568379 1.648843
  H 2.675966 0.268965 3.452357
  H 1.440243 0.951114 2.395191
  H 3.955955 2.410887 3.338001
  H 2.324422 2.671756 3.945899
  H 2.716739 3.093207 2.282092
  H 3.171690 -2.471348 -0.372870
  H 4.920108 0.037418 -0.694159
  H 4.909564 -2.313959 -3.988797
  H 5.281449 -0.617700 -3.850672
  H 3.004184 -0.133625 -2.933277
  H 2.583256 -1.836586 -3.107947
  H 3.400868 0.018214 -5.396332
  H 1.769134 -0.537624 -5.046355
  H 2.991791 -1.688732 -5.567429
  H 6.590670 -2.410736 -0.981370
 29
 10.673593
  H 2.532620 -1.521080 1.843975
  C 3.149041 -0.965596 1.153421
  C 3.322869 0.471997 1.422722
  C 2.561956 0.954341 2.656705
  C 2.775064 2.445605 2.891709
  C 3.700158 -1.647275 0.094245
  C 4.465239 -1.061418 -0.909787
  C 5.029539 -1.789706 -1.999596
  C 4.636433 -1.480383 -3.388781
  C 3.224890 -0.912104 -3.540782
  C 2.932856 -0.587231 -5.000773
  O 5.975213 -2.653417 -1.856846
  H 2.996206 1.050956 0.550705
  H 4.387589 0.698897 1.551268
  H 2.898024 0.400764 3.535777
  H 1.495190 0.759943 2.529199
  H 3.828906 2.666769 3.046491
  H 2.229223 2.774209 3.772604
  H 2.422684 3.025571 2.041806
  H 3.483246 -2.703759 0.014705
  H 4.668711 0.001827 -0.867637
  H 4.764966 -2.383640 -3.989981
  H 5.355324 -0.756023 -3.791565
  H 3.116087 -0.007473 -2.942615
  H 2.496637 -1.640869 -3.182627
  H 3.626326 0.159551 -5.379692
  H 1.924575 -0.196106 -5.107142
  H 3.015465 -1.476940 -5.620632
  H 6.313122 -2.794336 -0.942146
 29
 2.841998
  H 2.896378 -1.557927 2.154880
  C 3.313255 -1.000076 1.328216
  C 3.299900 0.465548 1.443993
  C 2.660570 0.974933 2.735771
  C 2.682402 2.499443 2.801415
  C 3.806422 -1.712013 0.261304
  C 4.320204 -1.141258 -0.904202
  C 4.840132 -1.900462 -1.972234
  C 4.583008 -1.532718 -3.384822
  C 3.263668 -0.801633 -3.640918
  C 3.123373 -0.454736 -5.118983
  O 5.639548 -2.906854 -1.797378
  H 2.771913 0.897694 0.585982
  H 4.326104 0.847700 1.377913
  H 3.196367 0.570992 3.597410
  H 1.627315 0.628569 2.795134
  H 3.702958 2.874847 2.768896
  H 2.225788 2.847301 3.724894
  H 2.129846 2.931451 1.969947
  H 3.737543 -2.790295 0.308385
  H 4.332477 -0.065594 -1.002998
  H 4.644401 -2.443408 -3.988128
  H 5.411124 -0.898454 -3.721035
  H 3.214650 0.116043 -3.055437
  H 2.429196 -1.437668 -3.340556
  H 3.928988 0.200582 -5.443145
  H 2.179972 0.054096 -5.301067
  H 3.145119 -1.351748 -5.731978
  H 5.903956 -3.083516 -0.872957
 29
 2.827277
  H 3.001271 -1.509259 2.318695
  C 3.303013 -0.993193 1.417809
  C 3.270480 0.474593 1.455057
  C 2.754906 1.047430 2.772789
  C 2.748235 2.571816 2.749599
  C 3.700244 -1.758285 0.344321
  C 4.068662 -1.248398 -0.901304
  C 4.668638 -1.987613 -1.931600
  C 4.567979 -1.558032 -3.347288
  C 3.289665 -0.809777 -3.723948
  C 3.319252 -0.411486 -5.195377
  O 5.552161 -2.920586 -1.712388
  H 2.655201 0.851857 0.629906
  H 4.277367 0.866307 1.264543
  H 3.384600 0.704668 3.596024
  H 1.741336 0.687153 2.957909
  H 3.751007 2.962066 2.591875
  H 2.379703 2.964716 3.693797
  H 2.104318 2.945255 1.956407
  H 3.676248 -2.832621 0.469875
  H 3.948648 -0.191244 -1.083896
  H 4.683065 -2.446751 -3.973259
  H 5.434868 -0.926904 -3.577326
  H 3.174131 0.089633 -3.120201
  H 2.424585 -1.448992 -3.543001
  H 4.153524 0.254883 -5.400929
  H 2.401142 0.102754 -5.467067
  H 3.415942 -1.286512 -5.833415
  H 5.512139 -3.368904 -0.845437
 29
 12.904858
  H 2.605601 -1.400107 2.188298
  C 3.086832 -0.917379 1.349993
  C 3.282917 0.534939 1.445587
  C 2.715331 1.151219 2.722203
  C 2.945313 2.658310 2.759275
  C 3.481606 -1.708010 0.293389
  C 4.051307 -1.231611 -0.882116
  C 4.688352 -2.013257 -1.875572
  C 4.594774 -1.620503 -3.297761
  C 3.288779 -0.936038 -3.700124
  C 3.315514 -0.553257 -5.175770
  O 5.693972 -2.788371 -1.596853
  H 2.831756 1.025157 0.574714
  H 4.353229 0.764187 1.384449
  H 3.188498 0.694892 3.593887
  H 1.644020 0.950305 2.782084
  H 4.007950 2.889683 2.727882
  H 2.535801 3.083172 3.672531
  H 2.461299 3.145775 1.915427
  H 3.294622 -2.769340 0.371911
  H 4.044440 -0.162566 -1.057120
  H 4.755274 -2.518407 -3.900665
  H 5.439721 -0.961823 -3.540366
  H 3.124444 -0.036739 -3.105837
  H 2.451690 -1.612037 -3.520600
  H 4.117422 0.151787 -5.380599
  H 2.376071 -0.089098 -5.463713
  H 3.463125 -1.429837 -5.802246
  H 5.545390 -3.495591 -0.948781
 29
 27.761165
  H 2.190676 -1.214847 2.007618
  C 2.841706 -0.785084 1.259669
  C 3.298796 0.593552 1.490757
  C 2.739648 1.216913 2.768718
  C 3.235172 2.647580 2.948541
  C 3.179577 -1.564573 0.175332
  C 3.933675 -1.124379 -0.903539
  C 4.598547 -1.937563 -1.862387
  C 4.590114 -1.658481 -3.303224
  C 3.252967 -1.128310 -3.824934
  C 3.343237 -0.792494 -5.309009
  O 5.705903 -2.478682 -1.357098
  H 3.017227 1.217231 0.633519
  H 4.393298 0.618197 1.533037
  H 3.043409 0.621595 3.631707
  H 1.648686 1.217187 2.731133
  H 4.320413 2.676103 3.016716
  H 2.829413 3.079244 3.860030
  H 2.926138 3.272850 2.113851
  H 2.803951 -2.577553 0.149073
  H 4.079113 -0.053069 -1.003413
  H 4.881591 -2.566042 -3.839368
  H 5.381321 -0.929064 -3.523589
  H 2.964199 -0.234472 -3.271307
  H 2.477683 -1.880247 -3.673564
  H 4.083144 -0.016270 -5.488316
  H 2.384593 -0.435378 -5.675890
  H 3.619547 -1.669414 -5.889675
  H 5.660087 -3.332560 -0.892918
 29
 51.435830
  H 1.999348 -1.050125 1.900346
  C 2.730120 -0.646595 1.213238
  C 3.329899 0.647387 1.580832
  C 2.792151 1.207460 2.897968
  C 3.427237 2.554051 3.226334
  C 3.014603 -1.371396 0.084043
  C 3.884238 -0.936103 -0.913794
  C 4.444970 -1.767824 -1.940527
  C 4.548700 -1.680867 -3.384926
  C 3.230079 -1.263940 -4.043440
  C 3.400524 -1.117305 -5.550967
  O 5.546652 -2.010083 -1.129850
  H 3.140215 1.374070 0.782462
  H 4.417215 0.546096 1.657165
  H 3.000535 0.506159 3.707930
  H 1.709272 1.328506 2.831552
  H 4.506129 2.459175 3.327465
  H 3.034032 2.942733 4.162331
  H 3.217821 3.281794 2.445395
  H 2.522288 -2.321757 -0.061751
  H 4.117890 0.127455 -0.925714
  H 4.884113 -2.642115 -3.788382
  H 5.334938 -0.959689 -3.652965
  H 2.892277 -0.316318 -3.622946
  H 2.465367 -2.013692 -3.839057
  H 4.131445 -0.347730 -5.787286
  H 2.457284 -0.838818 -6.013265
  H 3.730803 -2.052254 -5.997397
  H 5.596110 -2.888468 -0.701559
 29
 57.287280
  H 2.084954 -1.088251 1.893112
  C 2.790401 -0.638854 1.208548
  C 3.372427 0.662593 1.641455
  C 2.846890 1.113880 3.004135
  C 3.444238 2.455424 3.412990
  C 3.058383 -1.286252 0.070959
  C 3.968784 -0.766377 -0.943696
  C 4.420224 -1.523666 -2.064948
  C 4.542998 -1.611902 -3.504343
  C 3.199903 -1.348167 -4.192143
  C 3.355831 -1.390694 -5.707427
  O 5.396899 -1.444158 -1.022520
  H 3.136900 1.433936 0.902290
  H 4.461934 0.589349 1.692396
  H 3.095616 0.365737 3.759731
  H 1.759082 1.202005 2.967052
  H 4.527633 2.390064 3.487578
  H 3.057587 2.766493 4.380458
  H 3.195513 3.226504 2.686841
  H 2.578891 -2.228435 -0.144845
  H 4.162447 0.306429 -0.913444
  H 4.918572 -2.601449 -3.788180
  H 5.291002 -0.892757 -3.877928
  H 2.819010 -0.371654 -3.892645
  H 2.474995 -2.100693 -3.882378
  H 4.046250 -0.623490 -6.049949
  H 2.397359 -1.220582 -6.190325
  H 3.729869 -2.358524 -6.032692
  H 5.487370 -2.282350 -0.505620
 29
 56.225782
  H 2.171467 -1.123248 1.971202
  C 2.867008 -0.697138 1.262156
  C 3.401534 0.650110 1.612517
  C 2.817004 1.187435 2.918845
  C 3.371728 2.568291 3.249341
  C 3.165347 -1.409283 0.173884
  C 4.065863 -0.931342 -0.874432
  C 4.378357 -1.699343 -2.041251
  C 4.507600 -1.616524 -3.482920
  C 3.162841 -1.309998 -4.148659
  C 3.331693 -1.155505 -5.655351
  O 5.408324 -1.697914 -1.041657
  H 3.176451 1.359373 0.811280
  H 4.489826 0.604171 1.708796
  H 3.052032 0.501929 3.735786
  H 1.729788 1.248023 2.836153
  H 4.453617 2.534384 3.358952
  H 2.949529 2.936257 4.181349
  H 3.127818 3.280707 2.464078
  H 2.716919 -2.378508 0.019255
  H 4.320211 0.127509 -0.843508
  H 4.914640 -2.553965 -3.875320
  H 5.235009 -0.834194 -3.758813
  H 2.747235 -0.392126 -3.732258
  H 2.460848 -2.118322 -3.945115
  H 4.002601 -0.332671 -5.890667
  H 2.372462 -0.951412 -6.123335
  H 3.734992 -2.063917 -6.096334
  H 5.460064 -2.534759 -0.517306
 29
 55.794093
  H 2.286945 -1.198570 2.083304
  C 2.950266 -0.787647 1.335885
  C 3.427911 0.603773 1.593216
  C 2.815547 1.202601 2.859867
  C 3.312045 2.623494 3.099838
  C 3.261483 -1.549312 0.288828
  C 4.130522 -1.100412 -0.809026
  C 4.284061 -1.867469 -2.014869
  C 4.452091 -1.656299 -3.442341
  C 3.130790 -1.284542 -4.122266
  C 3.351764 -0.988610 -5.600906
  O 5.378760 -1.902412 -1.070803
  H 3.175735 1.248057 0.746597
  H 4.516262 0.608412 1.696514
  H 3.073797 0.582764 3.720548
  H 1.727294 1.212848 2.770725
  H 4.394082 2.641438 3.207468
  H 2.875585 3.032318 4.008258
  H 3.038195 3.273266 2.271729
  H 2.855254 -2.545902 0.200560
  H 4.354705 -0.035168 -0.813566
  H 4.868858 -2.555817 -3.905554
  H 5.186908 -0.852355 -3.617942
  H 2.699851 -0.409164 -3.635278
  H 2.423471 -2.107498 -4.021185
  H 4.032164 -0.151640 -5.734466
  H 2.409500 -0.734480 -6.079122
  H 3.766266 -1.853745 -6.112737
  H 5.441851 -2.713769 -0.508815
