 29
 0.000000
  C 0.994636 0.134390 0.385443
  C 2.471835 0.139774 0.398361
  C 3.240435 0.612071 1.573856
  C 2.447225 1.097478 2.782561
  H 3.111558 1.414855 3.572443
  C 3.090669 -0.323872 -0.756057
  C 4.466312 -0.411885 -0.975547
  C 5.128296 -0.866494 -2.108710
  C 4.615112 -1.387123 -3.406262
  C 3.122242 -1.501042 -3.690962
  C 2.890707 -2.062805 -5.091087
  O 6.450606 -0.869570 -2.116650
  H 0.549522 0.502665 1.302512
  H 0.629280 -0.879080 0.215794
  H 0.628927 0.748844 -0.438023
  H 3.896738 1.426627 1.247337
  H 3.897004 -0.201803 1.901476
  H 1.810631 0.300077 3.164537
  H 1.810405 1.937405 2.506874
  H 2.431269 -0.640981 -1.545526
  H 5.092819 -0.082425 -0.154842
  H 5.066249 -2.377476 -3.535762
  H 5.066596 -0.761229 -4.184425
  H 2.649499 -0.519633 -3.635982
  H 2.649073 -2.172009 -2.972914
  H 3.327047 -1.416507 -5.849201
  H 1.824749 -2.142116 -5.289439
  H 3.326635 -3.054062 -5.192109
  H 6.839403 -0.536630 -1.286209
 29
 -0.126454
  C 0.954695 0.272655 0.377180
  C 2.428646 0.214360 0.377260
  C 3.224311 0.563863 1.578926
  C 2.455012 1.006985 2.816542
  H 3.156365 1.236693 3.614352
  C 3.034593 -0.219884 -0.797165
  C 4.408575 -0.349971 -0.991990
  C 5.081055 -0.871639 -2.093756
  C 4.582936 -1.310433 -3.428029
  C 3.106824 -1.610842 -3.664540
  C 2.912027 -2.177077 -5.068964
  O 6.397997 -0.928850 -2.061815
  H 0.538768 0.627365 1.311903
  H 0.547622 -0.717320 0.165608
  H 0.607793 0.915389 -0.433056
  H 3.926358 1.358962 1.304095
  H 3.839789 -0.302123 1.845699
  H 1.791430 0.222939 3.172580
  H 1.869574 1.902027 2.620678
  H 2.372914 -0.472714 -1.607113
  H 5.044656 -0.041563 -0.170867
  H 5.169172 -2.198550 -3.687765
  H 4.903447 -0.538845 -4.138386
  H 2.512715 -0.701776 -3.583043
  H 2.751181 -2.343522 -2.939230
  H 3.245884 -1.468616 -5.823366
  H 1.861218 -2.390482 -5.247775
  H 3.470131 -3.101596 -5.197986
  H 6.802019 -0.615824 -1.228187
 29
 3.835569
  C 0.940440 0.410831 0.372505
  C 2.409891 0.308523 0.360879
  C 3.215148 0.516101 1.586304
  C 2.462918 0.895959 2.854066
  H 3.172959 1.029786 3.665462
  C 2.999650 -0.059527 -0.839923
  C 4.373440 -0.185906 -1.058835
  C 5.016521 -0.906526 -2.061898
  C 4.572834 -1.338975 -3.417366
  C 3.115476 -1.731071 -3.647363
  C 2.928843 -2.247333 -5.070886
  O 6.342069 -0.901185 -2.041383
  H 0.540821 0.730889 1.326112
  H 0.504061 -0.556838 0.118868
  H 0.608176 1.095802 -0.408100
  H 3.961295 1.290812 1.377146
  H 3.783077 -0.399578 1.781897
  H 1.764417 0.117903 3.151320
  H 1.921319 1.830563 2.731161
  H 2.331944 -0.257463 -1.663781
  H 5.020766 0.164087 -0.263309
  H 5.212706 -2.184221 -3.687660
  H 4.840660 -0.522142 -4.095468
  H 2.462130 -0.870147 -3.511064
  H 2.823810 -2.510859 -2.942979
  H 3.200437 -1.485320 -5.797628
  H 1.891420 -2.522855 -5.241730
  H 3.545154 -3.125223 -5.250975
  H 6.744712 -0.515586 -1.243118
 29
 17.313139
  C 0.936799 0.564265 0.446891
  C 2.399674 0.376143 0.424807
  C 3.222596 0.480003 1.651922
  C 2.498691 0.838268 2.943764
  H 3.219762 0.885517 3.757743
  C 2.955563 0.027073 -0.797926
  C 4.323357 -0.129495 -1.062762
  C 4.849454 -0.974188 -2.034846
  C 4.562953 -1.381021 -3.444543
  C 3.144264 -1.857913 -3.752773
  C 3.039670 -2.341645 -5.195654
  O 6.204496 -0.814166 -2.091443
  H 0.559435 0.875346 1.411957
  H 0.443729 -0.369315 0.168058
  H 0.642584 1.288652 -0.311288
  H 4.007868 1.223507 1.470903
  H 3.742161 -0.473761 1.799076
  H 1.754792 0.091015 3.205021
  H 2.015838 1.809196 2.872941
  H 2.272017 -0.159887 -1.612018
  H 5.014273 0.245278 -0.324114
  H 5.268236 -2.179796 -3.680070
  H 4.813602 -0.525452 -4.070094
  H 2.436036 -1.043118 -3.603964
  H 2.873264 -2.672172 -3.078520
  H 3.287028 -1.541951 -5.890637
  H 2.027765 -2.677243 -5.412556
  H 3.718175 -3.172096 -5.376870
  H 6.610541 -0.334972 -1.345652
 29
 45.782369
  C 0.898062 0.664461 0.660336
  C 2.353160 0.442488 0.565665
  C 3.229165 0.478744 1.756537
  C 2.575611 0.820951 3.087611
  H 3.332262 0.824586 3.867298
  C 2.848421 0.164865 -0.701563
  C 4.199310 -0.076240 -1.038177
  C 4.517040 -0.931928 -2.082059
  C 4.500238 -1.450353 -3.495396
  C 3.132151 -1.901527 -4.024295
  C 3.267029 -2.504995 -5.417791
  O 5.930043 -0.637348 -2.195292
  H 0.571533 0.942599 1.655648
  H 0.368988 -0.244434 0.365900
  H 0.589399 1.428861 -0.053978
  H 4.034148 1.195924 1.563594
  H 3.714401 -0.498080 1.855189
  H 1.821577 0.088561 3.362651
  H 2.120202 1.807834 3.064668
  H 2.132254 0.125501 -1.511222
  H 4.943435 0.154017 -0.295716
  H 5.181887 -2.302187 -3.507371
  H 4.920345 -0.681138 -4.139643
  H 2.457998 -1.045272 -4.071308
  H 2.697729 -2.639684 -3.349552
  H 3.687298 -1.781679 -6.113509
  H 2.294322 -2.810110 -5.795182
  H 3.914573 -3.378559 -5.402668
  H 6.331602 -0.092314 -1.498373
 29
 66.225227
  C 0.909040 0.762215 0.732119
  C 2.353357 0.492724 0.603925
  C 3.244504 0.452433 1.788949
  C 2.617193 0.772582 3.139849
  H 3.382838 0.720196 3.910448
  C 2.827841 0.246025 -0.671480
  C 4.155877 -0.135821 -1.001309
  C 4.340766 -0.891448 -2.141174
  C 4.459759 -1.472074 -3.510099
  C 3.138255 -1.927537 -4.149663
  C 3.398710 -2.618432 -5.483331
  O 5.807551 -0.457276 -2.274254
  H 0.612615 1.016923 1.742087
  H 0.343038 -0.117668 0.418380
  H 0.615650 1.561830 0.052799
  H 4.073384 1.146093 1.613345
  H 3.690234 -0.546862 1.852165
  H 1.838884 0.059503 3.398617
  H 2.199833 1.776212 3.157171
  H 2.130520 0.350955 -1.491003
  H 4.898165 -0.077412 -0.225002
  H 5.112957 -2.343319 -3.401858
  H 4.969978 -0.758200 -4.152106
  H 2.498220 -1.060239 -4.317015
  H 2.616370 -2.613099 -3.481192
  H 3.906307 -1.948994 -6.173832
  H 2.460470 -2.924815 -5.939268
  H 4.016904 -3.503366 -5.351211
  H 6.194209 0.119472 -1.596937
 29
 86.138136
  C 0.958662 0.731884 0.601123
  C 2.410762 0.455257 0.514104
  C 3.258771 0.391851 1.735797
  C 2.579560 0.699700 3.065688
  H 3.314114 0.632638 3.864906
  C 2.925744 0.248096 -0.735744
  C 4.265271 -0.192520 -0.975483
  C 4.372511 -0.904442 -2.120065
  C 4.436891 -1.483779 -3.428227
  C 3.072794 -1.887476 -4.032313
  C 3.273646 -2.612522 -5.357509
  O 5.995632 -0.139691 -2.274852
  H 0.636693 0.972245 1.606912
  H 0.401243 -0.140921 0.258413
  H 0.687560 1.546952 -0.068493
  H 4.095868 1.084118 1.603794
  H 3.693069 -0.610856 1.809886
  H 1.788121 -0.012929 3.283974
  H 2.167496 1.705499 3.080204
  H 2.291393 0.426936 -1.590431
  H 4.951179 -0.190696 -0.146543
  H 5.045343 -2.394263 -3.325163
  H 4.979219 -0.806886 -4.091499
  H 2.475702 -0.991705 -4.203579
  H 2.531988 -2.535679 -3.342070
  H 3.797924 -1.983166 -6.072661
  H 2.308428 -2.876231 -5.784719
  H 3.849023 -3.526100 -5.225733
  H 6.369454 0.507219 -1.665956
 29
 105.864791
  C 1.024254 0.862337 0.537326
  C 2.456820 0.477981 0.469380
  C 3.271565 0.309288 1.707180
  C 2.586865 0.630935 3.031001
  H 3.296660 0.487277 3.842173
  C 2.985710 0.285208 -0.765064
  C 4.302951 -0.282888 -0.983043
  C 4.328997 -0.954526 -2.117095
  C 4.412309 -1.527324 -3.383456
  C 3.045365 -1.926720 -4.009357
  C 3.262491 -2.665644 -5.320098
  O 6.119685 0.132355 -2.230717
  H 0.706357 1.097492 1.545313
  H 0.410672 0.042441 0.164108
  H 0.827060 1.718118 -0.105688
  H 4.159369 0.941295 1.613941
  H 3.626300 -0.724581 1.763409
  H 1.738558 -0.023748 3.211518
  H 2.254379 1.665566 3.066840
  H 2.402265 0.548456 -1.632721
  H 4.981921 -0.353387 -0.148957
  H 4.999296 -2.454717 -3.268924
  H 4.972061 -0.862133 -4.047090
  H 2.474401 -1.017063 -4.188964
  H 2.487501 -2.555681 -3.316625
  H 3.809676 -2.053911 -6.033315
  H 2.299737 -2.917275 -5.759001
  H 3.818612 -3.587491 -5.169025
  H 6.466917 0.815761 -1.651658
 29
 105.309259
  C 1.098727 1.194550 0.575620
  C 2.451094 0.590843 0.452474
  C 3.235986 0.204151 1.661338
  C 2.629661 0.549210 3.016790
  H 3.310702 0.232686 3.803301
  C 2.913611 0.381344 -0.805908
  C 4.110094 -0.379381 -1.094873
  C 4.335412 -1.020015 -2.199145
  C 4.432832 -1.600454 -3.442756
  C 3.054660 -2.062071 -4.020997
  C 3.269509 -2.832070 -5.310759
  O 6.215431 0.423021 -1.980629
  H 0.839028 1.422480 1.601636
  H 0.355891 0.504817 0.176290
  H 1.033119 2.103656 -0.019623
  H 4.218183 0.682843 1.594349
  H 3.406152 -0.876982 1.637516
  H 1.682557 0.039593 3.172321
  H 2.482148 1.621139 3.124421
  H 2.366277 0.753377 -1.656045
  H 4.759002 -0.550574 -0.238406
  H 5.032486 -2.518713 -3.322786
  H 4.966866 -0.951730 -4.147706
  H 2.457824 -1.171872 -4.211382
  H 2.536665 -2.680592 -3.289806
  H 3.783353 -2.225269 -6.051851
  H 2.303998 -3.120006 -5.719370
  H 3.851277 -3.735030 -5.146024
  H 6.433529 1.119714 -1.360390
 29
 86.687537
  C 1.362504 1.205334 0.227202
  C 2.704864 0.569972 0.240804
  C 3.325640 0.121619 1.527634
  C 2.565786 0.463622 2.802323
  H 3.126849 0.101803 3.657341
  C 3.348899 0.440268 -0.939664
  C 4.686600 -0.227880 -1.086114
  C 4.546119 -1.053348 -2.182932
  C 4.366748 -1.643628 -3.423333
  C 2.905915 -2.028874 -3.792165
  C 2.883241 -2.825289 -5.072877
  O 5.837413 0.675967 -1.328024
  H 0.997145 1.426408 1.230507
  H 0.656720 0.537382 -0.266821
  H 1.380206 2.138619 -0.343792
  H 4.320660 0.562368 1.600869
  H 3.455980 -0.963129 1.495597
  H 1.592178 -0.011092 2.823590
  H 2.444875 1.534978 2.919815
  H 2.930037 0.850643 -1.845755
  H 5.106092 -0.666164 -0.177996
  H 4.943206 -2.586492 -3.364664
  H 4.808545 -1.049731 -4.246558
  H 2.335551 -1.115820 -3.915917
  H 2.466735 -2.604034 -2.985192
  H 3.313662 -2.260761 -5.894269
  H 1.859249 -3.063072 -5.331196
  H 3.430478 -3.755692 -4.971199
  H 5.910173 1.312405 -0.601488
 29
 61.076690
  C 1.450523 0.768485 -0.301499
  C 2.839048 0.344573 -0.033048
  C 3.299920 0.024254 1.332070
  C 2.303035 0.236933 2.461418
  H 2.772587 -0.029401 3.402340
  C 3.707724 0.270149 -1.128473
  C 5.198289 0.003845 -0.972688
  C 4.664482 -0.993712 -1.807021
  C 4.262842 -1.549388 -3.066243
  C 2.757784 -1.783656 -3.246124
  C 2.484736 -2.502353 -4.560867
  O 6.203251 0.809913 -1.553608
  H 0.891381 0.970721 0.605415
  H 0.940418 -0.026799 -0.854255
  H 1.424565 1.652131 -0.938698
  H 4.191838 0.616081 1.543798
  H 3.618109 -1.023945 1.344958
  H 1.425613 -0.390761 2.342674
  H 1.993730 1.274607 2.530063
  H 3.357856 0.696338 -2.059276
  H 5.562094 -0.311394 0.007874
  H 4.764133 -2.526336 -3.125112
  H 4.650082 -0.955783 -3.909201
  H 2.240256 -0.825341 -3.249912
  H 2.381024 -2.380486 -2.415618
  H 2.838019 -1.917959 -5.404912
  H 1.417686 -2.658866 -4.684998
  H 2.972395 -3.473166 -4.587397
  H 6.440986 1.539128 -0.966668
 29
 43.381685
  C 1.358805 0.867894 -0.053577
  C 2.730916 0.325260 0.066163
  C 3.305434 -0.042620 1.382218
  C 2.434744 0.210354 2.610405
  H 2.984299 -0.086071 3.500497
  C 3.417064 0.160598 -1.144254
  C 5.118722 0.090309 -1.104693
  C 4.318774 -0.941659 -1.642840
  C 4.221287 -1.577809 -2.957039
  C 2.798896 -1.759037 -3.484286
  C 2.793737 -2.604089 -4.751523
  O 5.928681 0.812341 -1.885152
  H 0.923793 1.125005 0.902193
  H 0.723457 0.116828 -0.527531
  H 1.333183 1.741423 -0.703120
  H 4.251999 0.491466 1.528276
  H 3.559400 -1.109847 1.350930
  H 1.519576 -0.373548 2.578612
  H 2.184776 1.263469 2.713448
  H 2.897750 0.574990 -2.008623
  H 5.366101 0.041505 -0.050204
  H 4.681575 -2.566921 -2.856056
  H 4.848086 -1.044198 -3.686283
  H 2.356069 -0.788804 -3.712056
  H 2.185937 -2.243145 -2.722052
  H 3.387959 -2.134449 -5.530986
  H 1.779815 -2.720412 -5.125475
  H 3.199471 -3.595789 -4.562384
  H 6.299176 1.596233 -1.442398
 29
 20.559956
  C 1.054639 0.585184 0.178231
  C 2.486228 0.191087 0.138766
  C 3.286968 0.136698 1.392416
  C 2.573784 0.516694 2.686210
  H 3.275426 0.441896 3.513726
  C 2.942867 -0.258822 -1.081510
  C 5.246643 -0.061504 -1.175550
  C 4.162613 -0.858933 -1.534375
  C 4.172264 -1.489893 -2.889651
  C 2.852443 -1.592950 -3.652901
  C 3.047384 -2.383803 -4.944985
  O 6.198379 0.213224 -2.030140
  H 0.746863 0.968678 1.144799
  H 0.433762 -0.278645 -0.060950
  H 0.841748 1.336388 -0.589410
  H 4.155034 0.793819 1.291091
  H 3.678450 -0.881072 1.498700
  H 1.743177 -0.152587 2.896658
  H 2.208768 1.539155 2.656383
  H 2.220088 -0.150146 -1.878885
  H 5.355573 0.298954 -0.161150
  H 4.547031 -2.511603 -2.744998
  H 4.925900 -0.990022 -3.509015
  H 2.487548 -0.593877 -3.911372
  H 2.096656 -2.095989 -3.041114
  H 3.784991 -1.906430 -5.584026
  H 2.113610 -2.445117 -5.496053
  H 3.381872 -3.398038 -4.735308
  H 6.842503 0.878743 -1.722573
 29
 7.928770
  C 0.964109 0.314890 0.330837
  C 2.423732 0.111181 0.189877
  C 3.332014 0.380632 1.333975
  C 2.692299 0.838051 2.640870
  H 3.473233 1.002720 3.379347
  C 2.830602 -0.421399 -1.022855
  C 5.278409 -0.257291 -1.093608
  C 4.081050 -0.787269 -1.565860
  C 4.147191 -1.439006 -2.917600
  C 2.888392 -1.457400 -3.779357
  C 3.150156 -2.213264 -5.078632
  O 6.356182 -0.283342 -1.829417
  H 0.680022 0.728316 1.289648
  H 0.446698 -0.635531 0.195102
  H 0.598136 0.969523 -0.460867
  H 4.046765 1.150197 1.027927
  H 3.906333 -0.529946 1.534099
  H 2.015400 0.086386 3.038492
  H 2.153899 1.774234 2.518648
  H 2.017594 -0.568547 -1.720306
  H 5.350335 0.170416 -0.105436
  H 4.460702 -2.477760 -2.758321
  H 4.959644 -0.973585 -3.480844
  H 2.590185 -0.435660 -4.022741
  H 2.066152 -1.948621 -3.257675
  H 3.954888 -1.748098 -5.643591
  H 2.259148 -2.217193 -5.701833
  H 3.426274 -3.246024 -4.878084
  H 7.126679 0.169856 -1.440678
 29
 6.349428
  C 0.930866 0.307074 0.332314
  C 2.399443 0.147566 0.164809
  C 3.330197 0.420132 1.296155
  C 2.713893 0.862013 2.617891
  H 3.506705 1.029864 3.340666
  C 2.814943 -0.310594 -1.064221
  C 5.324015 -0.380219 -1.044127
  C 4.065918 -0.650272 -1.609885
  C 4.164022 -1.227825 -2.983918
  C 2.868159 -1.537271 -3.730529
  C 3.175051 -2.217300 -5.063999
  O 6.414234 -0.662647 -1.705686
  H 0.643757 0.663279 1.310996
  H 0.435073 -0.643871 0.154979
  H 0.540193 0.995878 -0.418828
  H 4.028149 1.193618 0.966649
  H 3.919090 -0.481407 1.486636
  H 2.053925 0.098790 3.023436
  H 2.161665 1.790813 2.513357
  H 2.010999 -0.477058 -1.769673
  H 5.356299 0.158145 -0.111576
  H 4.752207 -2.145683 -2.902915
  H 4.758743 -0.548611 -3.597800
  H 2.313713 -0.618380 -3.938251
  H 2.235899 -2.199552 -3.136939
  H 3.787324 -1.576071 -5.695890
  H 2.254591 -2.437140 -5.599355
  H 3.706652 -3.151606 -4.909892
  H 7.249832 -0.400964 -1.268675
