13

C 1.047947 -0.112011 -0.038947
C 2.54391 -0.135375 -0.038393
C 3.259565 -1.265084 -0.04521
C 4.697646 -1.288341 -0.045708
C 5.417834 -2.423761 -0.052198
H 6.487720936992875 -2.439310752659371 -0.05258172416892565
H 0.686401 0.915696 -0.031476
H 0.651536 -0.613279 0.844088
H 0.652486 -0.59935 -0.930356
H 3.043954 0.824374 -0.031896
H 2.748589 -2.220182 -0.050033
H 5.202273 -0.330045 -0.040549
H 4.913723 -3.382251 -0.05737
