 13
 0.000000
  C 1.048308 -0.109998 -0.038992
  C 2.544720 -0.139664 -0.038520
  C 3.257538 -1.266083 -0.045185
  C 4.700499 -1.294809 -0.045905
  C 5.411334 -2.417977 -0.052046
  H 6.486434 -2.430171 -0.052592
  H 0.687674 0.916457 -0.030716
  H 0.651141 -0.613637 0.841105
  H 0.651768 -0.598072 -0.928435
  H 3.048268 0.817284 -0.031929
  H 2.746745 -2.220111 -0.049439
  H 5.205586 -0.337262 -0.041172
  H 4.913570 -3.374876 -0.056803
 13
 1.132443
  C 1.069330 -0.133250 -0.031820
  C 2.559769 -0.059018 -0.012952
  C 3.264037 -1.185545 -0.040691
  C 4.707668 -1.284131 -0.035156
  C 5.382183 -2.451285 -0.070726
  H 6.458633 -2.491928 -0.065570
  H 0.601543 0.842899 -0.124723
  H 0.699991 -0.609752 0.876983
  H 0.782404 -0.766702 -0.870192
  H 3.033381 0.911800 -0.007894
  H 2.682875 -2.100262 -0.082610
  H 5.246114 -0.343159 0.000694
  H 4.866333 -3.397992 -0.105945
 13
 4.368285
  C 1.100296 -0.166348 -0.023495
  C 2.582296 -0.000660 0.012033
  C 3.280946 -1.132112 -0.041102
  C 4.706580 -1.278813 -0.019952
  C 5.332546 -2.450104 -0.093655
  H 6.408867 -2.528272 -0.076248
  H 0.558986 0.739632 -0.242049
  H 0.744885 -0.557820 0.928046
  H 0.922582 -0.947978 -0.784152
  H 3.025916 0.986652 0.015931
  H 2.632879 -2.009235 -0.137741
  H 5.271176 -0.364992 0.061371
  H 4.783884 -3.374983 -0.173956
 13
 8.950779
  C 1.117401 -0.195027 -0.022305
  C 2.588399 0.040820 0.039563
  C 3.286115 -1.089763 -0.039014
  C 4.713042 -1.276731 -0.011414
  C 5.305603 -2.459381 -0.119614
  H 6.376232 -2.569246 -0.095199
  H 0.528112 0.638758 -0.370432
  H 0.745602 -0.493820 0.961853
  H 1.062154 -1.075912 -0.673633
  H 3.006089 1.037583 0.052715
  H 2.582442 -1.930835 -0.178731
  H 5.303299 -0.380533 0.106917
  H 4.731597 -3.362455 -0.234377
 13
 15.508412
  C 1.128798 -0.216763 -0.018351
  C 2.589238 0.069559 0.056702
  C 3.290113 -1.060587 -0.046934
  C 4.712995 -1.275974 -0.009020
  C 5.282651 -2.468681 -0.141048
  H 6.353015 -2.601557 -0.113425
  H 0.512477 0.541963 -0.483573
  H 0.733807 -0.419721 0.976399
  H 1.188445 -1.181447 -0.569649
  H 2.987727 1.069221 0.110541
  H 2.546598 -1.864828 -0.210186
  H 5.321810 -0.393432 0.134652
  H 4.690894 -3.356315 -0.281414
 13
 23.983916
  C 1.141703 -0.236533 -0.015550
  C 2.589995 0.080886 0.087163
  C 3.297102 -1.043154 -0.041984
  C 4.711750 -1.274917 -0.010036
  C 5.265145 -2.473482 -0.164726
  H 6.325708 -2.620401 -0.140090
  H 0.534594 0.452133 -0.596983
  H 0.697351 -0.342982 0.969146
  H 1.294769 -1.261813 -0.464643
  H 2.970584 1.081073 0.167421
  H 2.505484 -1.822107 -0.220828
  H 5.333533 -0.401560 0.149353
  H 4.664070 -3.346083 -0.324916
 13
 34.531488
  C 1.146007 -0.251108 -0.012716
  C 2.589129 0.087864 0.101154
  C 3.303382 -1.028345 -0.046273
  C 4.714997 -1.274351 -0.013349
  C 5.255261 -2.477527 -0.181003
  H 6.316381 -2.635731 -0.159291
  H 0.556477 0.376040 -0.674481
  H 0.662137 -0.288991 0.958143
  H 1.374777 -1.316977 -0.387165
  H 2.958414 1.088196 0.220598
  H 2.457969 -1.787501 -0.233891
  H 5.346312 -0.410613 0.155888
  H 4.642818 -3.345447 -0.349407
 13
 47.043048
  C 1.146727 -0.256911 -0.008890
  C 2.583362 0.087560 0.105280
  C 3.304372 -1.025933 -0.048006
  C 4.719871 -1.278277 -0.016734
  C 5.253234 -2.481962 -0.190228
  H 6.313621 -2.647753 -0.162154
  H 0.561673 0.344003 -0.699446
  H 0.645531 -0.274511 0.951324
  H 1.439070 -1.351980 -0.361600
  H 2.946628 1.090711 0.235419
  H 2.409734 -1.761868 -0.242316
  H 5.354946 -0.423739 0.158975
  H 4.636153 -3.345237 -0.358252
 13
 58.576824
  C 1.143958 -0.257652 -0.007876
  C 2.581205 0.081913 0.107313
  C 3.308921 -1.025166 -0.060641
  C 4.723485 -1.278867 -0.031405
  C 5.254770 -2.484755 -0.203132
  H 6.311937 -2.654922 -0.153564
  H 0.567527 0.325642 -0.718464
  H 0.634064 -0.258828 0.944718
  H 1.476098 -1.388942 -0.342893
  H 2.942023 1.084031 0.267594
  H 2.363625 -1.756319 -0.253800
  H 5.363176 -0.424082 0.153793
  H 4.634390 -3.352390 -0.352928
 13
 68.607750
  C 1.139040 -0.246291 -0.006515
  C 2.578026 0.069873 0.108856
  C 3.313904 -1.030030 -0.053674
  C 4.726776 -1.283635 -0.017562
  C 5.261775 -2.488496 -0.192603
  H 6.327875 -2.653405 -0.168744
  H 0.581820 0.320064 -0.749480
  H 0.609851 -0.215262 0.946787
  H 1.487473 -1.434444 -0.321372
  H 2.937942 1.058136 0.278848
  H 2.318958 -1.774680 -0.252804
  H 5.359419 -0.436206 0.152915
  H 4.650020 -3.345138 -0.381133
 13
 78.160503
  C 1.132625 -0.239824 -0.004654
  C 2.572725 0.055048 0.112281
  C 3.318057 -1.036698 -0.050483
  C 4.730783 -1.288108 -0.015363
  C 5.266144 -2.492076 -0.191798
  H 6.323970 -2.653404 -0.164028
  H 0.592986 0.309542 -0.766065
  H 0.600385 -0.189621 0.929494
  H 1.493860 -1.480617 -0.304632
  H 2.938913 1.058339 0.295125
  H 2.279200 -1.797916 -0.253064
  H 5.374987 -0.424598 0.151526
  H 4.651773 -3.353147 -0.412701
 13
 88.264765
  C 1.121795 -0.216640 0.000027
  C 2.569658 0.038972 0.112147
  C 3.330289 -1.039381 -0.068799
  C 4.739409 -1.286773 -0.035485
  C 5.279003 -2.489804 -0.208503
  H 6.339744 -2.652381 -0.156005
  H 0.593846 0.335899 -0.772024
  H 0.583885 -0.163182 0.938865
  H 1.485930 -1.536881 -0.315162
  H 2.936882 1.028397 0.321474
  H 2.231404 -1.838871 -0.284369
  H 5.377276 -0.431098 0.146688
  H 4.667819 -3.357098 -0.378808
 13
 98.154705
  C 1.111602 -0.179440 0.006767
  C 2.563265 0.009497 0.114132
  C 3.342525 -1.047499 -0.057482
  C 4.748524 -1.289727 -0.016387
  C 5.296493 -2.489256 -0.194919
  H 6.361649 -2.637718 -0.177838
  H 0.609481 0.377055 -0.776539
  H 0.568855 -0.114794 0.943598
  H 1.445252 -1.622918 -0.326974
  H 2.938720 0.998644 0.320141
  H 2.159561 -1.921440 -0.306989
  H 5.385688 -0.427554 0.158122
  H 4.691518 -3.358965 -0.389784
 13
 106.842210
  C 1.098717 -0.136500 0.018070
  C 2.554165 -0.023877 0.116079
  C 3.357035 -1.056389 -0.064531
  C 4.760980 -1.288289 -0.031060
  C 5.316393 -2.484654 -0.207640
  H 6.379998 -2.633934 -0.144853
  H 0.619086 0.431997 -0.771087
  H 0.554924 -0.070437 0.953542
  H 1.391385 -1.720656 -0.354568
  H 2.937631 0.962095 0.332686
  H 2.081921 -2.018279 -0.347923
  H 5.395244 -0.425583 0.152919
  H 4.717169 -3.358569 -0.398017
