 8
 0.000000
  H -1.594901 -1.209872 -0.274910
  C -1.181609 -0.215747 -0.069757
  O 0.001859 -0.017080 -0.004896
  H -1.908121 0.592744 0.073519
  O 3.251351 0.168759 0.055702
  H 3.429366 1.131505 0.110918
  H 2.287564 -0.002356 0.001179
  H 3.649726 -0.314057 0.810538
 8
 -1.399394
  H -1.458509 -1.190918 -0.274603
  C -1.029129 -0.201146 -0.056698
  O 0.154500 -0.017277 -0.000072
  H -1.751763 0.610069 0.096876
  O 3.106633 0.150056 0.040943
  H 3.281654 1.115835 0.089466
  H 2.137945 -0.008571 -0.004551
  H 3.490652 -0.324051 0.811397
 8
 -2.365619
  H -1.302160 -1.173366 -0.304013
  C -0.910040 -0.184646 -0.024420
  O 0.267667 0.044026 0.041763
  H -1.662599 0.598659 0.103946
  O 2.983726 0.123744 0.028961
  H 3.175103 1.082999 0.049131
  H 1.999414 -0.028890 -0.003451
  H 3.356731 -0.326999 0.811361
 8
 -1.741620
  H -1.147949 -1.176838 -0.311177
  C -0.816041 -0.169716 -0.026793
  O 0.346176 0.121718 0.067557
  H -1.612397 0.576390 0.118472
  O 2.877352 0.090027 0.020243
  H 3.112588 1.041243 0.011105
  H 1.868045 -0.004186 0.008023
  H 3.239769 -0.350340 0.806333
 8
 1.064108
  H -0.977257 -1.185811 -0.310173
  C -0.744741 -0.149421 -0.040899
  O 0.381759 0.248973 0.100614
  H -1.606791 0.513221 0.127306
  O 2.792288 0.053746 0.008371
  H 3.100210 0.976667 -0.026802
  H 1.726593 0.045179 0.022861
  H 3.143995 -0.393182 0.799182
 8
 4.866332
  H -0.850474 -1.188631 -0.325325
  C -0.701525 -0.144864 -0.035170
  O 0.386699 0.344370 0.139093
  H -1.604636 0.459420 0.117824
  O 2.746211 0.019190 -0.000935
  H 3.102539 0.920185 -0.065428
  H 1.589082 0.075227 0.039692
  H 3.092129 -0.419422 0.793987
 8
 6.848165
  H -0.747469 -1.189660 -0.338990
  C -0.679599 -0.142495 -0.039017
  O 0.364998 0.436152 0.167260
  H -1.615603 0.394117 0.110211
  O 2.727650 -0.016154 -0.008789
  H 3.123890 0.858665 -0.097970
  H 1.449814 0.106061 0.054487
  H 3.077938 -0.444471 0.790264
 8
 7.410336
  H -0.644918 -1.190809 -0.358906
  C -0.674488 -0.148068 -0.029134
  O 0.317067 0.521605 0.192926
  H -1.655674 0.322313 0.087305
  O 2.725023 -0.056822 -0.010043
  H 3.171036 0.786303 -0.137903
  H 1.315521 0.158512 0.078770
  H 3.090786 -0.475757 0.780968
 8
 8.790760
  H -0.575495 -1.195838 -0.368351
  C -0.689331 -0.157852 -0.034214
  O 0.254558 0.577169 0.203410
  H -1.707046 0.249321 0.065357
  O 2.744801 -0.089277 -0.007032
  H 3.240071 0.718034 -0.169243
  H 1.200008 0.225506 0.101626
  H 3.127848 -0.516035 0.765784
 8
 11.230800
  H -0.558912 -1.246793 -0.226211
  C -0.725676 -0.184989 -0.026310
  O 0.178082 0.611300 0.126402
  H -1.765507 0.184575 0.040579
  O 2.792967 -0.111602 -0.023137
  H 3.329729 0.649774 -0.265877
  H 1.102300 0.309802 0.134771
  H 3.206383 -0.525534 0.741494
 8
 14.717692
  H -0.573559 -1.269360 -0.231510
  C -0.781501 -0.211521 -0.038260
  O 0.082649 0.621480 0.152220
  H -1.831064 0.124763 -0.013051
  O 2.881463 -0.122715 -0.011979
  H 3.455902 0.600858 -0.264844
  H 0.991033 0.393350 0.171704
  H 3.315779 -0.588853 0.709638
 8
 18.645849
  H -0.652222 -1.291935 -0.246128
  C -0.877344 -0.238702 -0.055038
  O -0.031739 0.617204 0.143321
  H -1.932054 0.081904 -0.032998
  O 3.051346 -0.136539 -0.004413
  H 3.634441 0.587213 -0.233850
  H 0.864770 0.422845 0.168523
  H 3.485148 -0.645688 0.688272
 8
 17.628000
  H -0.845796 -1.308162 -0.262989
  C -1.117975 -0.266707 -0.069090
  O -0.332186 0.640232 0.151844
  H -2.184506 -0.001013 -0.116026
  O 3.444763 -0.149890 0.026944
  H 4.054165 0.553598 -0.215917
  H 0.627607 0.461482 0.195885
  H 3.907339 -0.693372 0.669493
 8
 18.956505
  H -0.954729 -1.347330 -0.318568
  C -1.213197 -0.306901 -0.103865
  O -0.404414 0.579332 0.133437
  H -2.277983 -0.013998 -0.108543
  O 3.636899 -0.159035 0.040462
  H 4.211898 0.574994 -0.188216
  H 0.534178 0.413968 0.157602
  H 4.103071 -0.700734 0.682948
