 20
 0.000000
  H 1.422416 0.161060 0.457219
  C 2.500542 0.138519 0.398665
  C 3.244021 0.611572 1.569548
  H 2.576804 0.930323 2.362047
  C 3.051875 -0.332239 -0.771346
  C 4.431492 -0.418153 -0.986925
  C 5.124164 -0.869371 -2.114259
  C 4.620698 -1.389164 -3.412515
  C 3.131141 -1.500233 -3.691454
  H 3.000790 -1.901080 -4.693110
  O 6.437591 -0.860484 -2.092947
  H 3.898338 1.444017 1.302289
  H 3.900538 -0.171894 1.953930
  H 2.371454 -0.642982 -1.542920
  H 5.059372 -0.089179 -0.166945
  H 5.086265 -2.373635 -3.541229
  H 5.087043 -0.766259 -4.185194
  H 2.644545 -0.529002 -3.663522
  H 2.643970 -2.183603 -3.001411
  H 6.841717 -0.530929 -1.267248
 20
 0.004744
  H 1.422579 0.118941 0.475127
  C 2.501085 0.119363 0.406906
  C 3.243546 0.644264 1.556554
  H 2.574974 0.970813 2.346404
  C 3.053976 -0.371780 -0.757354
  C 4.431657 -0.436537 -0.980981
  C 5.123906 -0.891776 -2.106240
  C 4.620242 -1.379716 -3.415103
  C 3.130617 -1.480414 -3.696275
  H 2.999074 -1.843621 -4.713111
  O 6.436052 -0.899948 -2.078531
  H 3.875284 1.483380 1.258999
  H 3.921800 -0.111929 1.957683
  H 2.374150 -0.722057 -1.513492
  H 5.059558 -0.087084 -0.169617
  H 5.085435 -2.359065 -3.571520
  H 5.086303 -0.735383 -4.171070
  H 2.643886 -0.511376 -3.630595
  H 2.644645 -2.189595 -3.032455
  H 6.840279 -0.586283 -1.246349
 20
 0.027899
  H 1.425325 0.079616 0.491094
  C 2.502809 0.102214 0.413121
  C 3.243006 0.674101 1.541559
  H 2.574151 1.008533 2.327281
  C 3.056865 -0.405859 -0.743370
  C 4.434036 -0.451634 -0.975427
  C 5.125183 -0.912991 -2.098740
  C 4.620315 -1.369240 -3.418925
  C 3.130528 -1.464031 -3.700353
  H 2.997644 -1.791301 -4.729108
  O 6.436995 -0.941214 -2.064806
  H 3.855615 1.517944 1.215602
  H 3.939503 -0.056769 1.957910
  H 2.379625 -0.791502 -1.482934
  H 5.062397 -0.084156 -0.172012
  H 5.088506 -2.342386 -3.604848
  H 5.082443 -0.701399 -4.156728
  H 2.641143 -0.499857 -3.598614
  H 2.648143 -2.198113 -3.061212
  H 6.841499 -0.644016 -1.227016
 20
 0.076392
  H 1.429900 0.045074 0.503708
  C 2.506013 0.084825 0.417692
  C 3.243200 0.705354 1.522804
  H 2.573778 1.052921 2.301789
  C 3.061792 -0.445087 -0.728134
  C 4.437610 -0.471391 -0.969691
  C 5.127840 -0.938161 -2.091439
  C 4.622217 -1.359916 -3.422287
  C 3.131999 -1.444616 -3.703244
  H 2.996352 -1.733859 -4.742452
  O 6.438855 -0.985762 -2.052288
  H 3.839028 1.547770 1.166737
  H 3.954090 0.000216 1.957335
  H 2.387078 -0.863916 -1.452384
  H 5.067200 -0.085554 -0.175980
  H 5.090686 -2.326605 -3.637769
  H 5.082573 -0.669796 -4.140328
  H 2.642090 -0.484177 -3.563720
  H 2.651628 -2.201665 -3.090527
  H 6.844119 -0.705922 -1.208239
 20
 0.167486
  H 1.440230 -0.032153 0.534621
  C 2.510656 0.048290 0.428887
  C 3.239928 0.730895 1.502148
  H 2.567954 1.080252 2.281200
  C 3.069456 -0.493172 -0.709823
  C 4.443188 -0.489676 -0.964174
  C 5.133325 -0.955639 -2.087352
  C 4.624986 -1.343944 -3.428708
  C 3.135080 -1.410208 -3.709582
  H 2.995354 -1.652408 -4.762134
  O 6.443580 -1.017070 -2.045459
  H 3.799322 1.580246 1.111070
  H 3.981352 0.065552 1.948901
  H 2.402392 -0.969662 -1.406388
  H 5.071005 -0.076783 -0.182776
  H 5.086750 -2.306102 -3.670781
  H 5.087884 -0.637741 -4.127549
  H 2.650347 -0.457618 -3.524919
  H 2.651973 -2.193796 -3.128806
  H 6.849791 -0.760693 -1.194903
 20
 0.301984
  H 1.445272 -0.070099 0.538479
  C 2.514520 0.029717 0.424674
  C 3.232072 0.779222 1.461345
  H 2.555754 1.149625 2.224779
  C 3.082073 -0.546958 -0.691740
  C 4.454200 -0.523068 -0.953504
  C 5.143244 -0.999126 -2.073204
  C 4.629562 -1.353334 -3.421361
  C 3.137641 -1.367193 -3.704004
  H 2.991283 -1.559646 -4.764412
  O 6.451149 -1.083404 -2.029028
  H 3.770582 1.622887 1.027728
  H 3.989626 0.152968 1.935822
  H 2.424341 -1.064895 -1.367002
  H 5.079547 -0.078722 -0.188863
  H 5.062926 -2.325452 -3.679643
  H 5.115760 -0.647959 -4.106098
  H 2.677562 -0.410452 -3.475294
  H 2.633812 -2.160637 -3.158910
  H 6.859135 -0.849337 -1.172846
 20
 0.337808
  H 1.450214 -0.088121 0.540234
  C 2.517604 0.025628 0.419959
  C 3.227742 0.809207 1.436793
  H 2.549456 1.184840 2.195255
  C 3.091256 -0.566652 -0.688195
  C 4.462331 -0.534561 -0.952696
  C 5.149870 -1.026446 -2.064827
  C 4.634001 -1.381174 -3.411775
  C 3.142611 -1.336481 -3.705181
  H 2.996862 -1.489719 -4.773382
  O 6.457775 -1.120602 -2.017441
  H 3.749865 1.652166 0.981474
  H 3.997900 0.206755 1.920062
  H 2.438103 -1.108534 -1.353470
  H 5.090299 -0.080175 -0.193348
  H 5.029720 -2.372300 -3.653613
  H 5.154072 -0.706140 -4.101831
  H 2.713140 -0.373733 -3.446970
  H 2.607088 -2.131504 -3.188743
  H 6.865276 -0.884585 -1.160994
 20
 0.256729
  H 1.453458 -0.106318 0.534726
  C 2.521232 0.013481 0.415508
  C 3.225550 0.805748 1.430219
  H 2.548334 1.158874 2.200058
  C 3.097949 -0.574006 -0.689010
  C 4.469048 -0.535839 -0.952385
  C 5.156816 -1.025820 -2.066165
  C 4.635673 -1.403138 -3.405475
  C 3.149535 -1.308748 -3.710420
  H 3.007813 -1.452028 -4.778643
  O 6.465781 -1.108933 -2.025598
  H 3.717565 1.666493 0.973046
  H 4.020108 0.221525 1.897604
  H 2.449857 -1.113857 -1.354960
  H 5.093914 -0.088797 -0.187396
  H 4.990061 -2.418129 -3.609473
  H 5.187634 -0.776027 -4.114375
  H 2.748402 -0.331782 -3.449861
  H 2.584109 -2.086832 -3.204495
  H 6.876519 -0.864127 -1.174622
 20
 0.341981
  H 1.457477 -0.154963 0.543647
  C 2.523273 -0.011584 0.415283
  C 3.211944 0.823485 1.405394
  H 2.542378 1.132244 2.198891
  C 3.109110 -0.610172 -0.678231
  C 4.477272 -0.548611 -0.950921
  C 5.168273 -1.049526 -2.059508
  C 4.639702 -1.432899 -3.395183
  C 3.166342 -1.247236 -3.717567
  H 3.028569 -1.371934 -4.794124
  O 6.475471 -1.126463 -2.021834
  H 3.621554 1.717625 0.929943
  H 4.066810 0.297332 1.840281
  H 2.471071 -1.182347 -1.330306
  H 5.097996 -0.063854 -0.207794
  H 4.924015 -2.476789 -3.566834
  H 5.241357 -0.864901 -4.113180
  H 2.822099 -0.253859 -3.448931
  H 2.548472 -1.991047 -3.229154
  H 6.885346 -0.889289 -1.167967
 20
 0.433734
  H 1.467858 -0.204948 0.557262
  C 2.527180 -0.038431 0.418489
  C 3.197001 0.846661 1.376846
  H 2.535305 1.126879 2.187639
  C 3.122948 -0.654958 -0.659647
  C 4.485251 -0.562810 -0.947534
  C 5.172414 -1.067968 -2.055856
  C 4.638226 -1.455580 -3.386403
  C 3.187673 -1.170909 -3.733180
  H 3.055190 -1.309324 -4.807026
  O 6.479971 -1.138791 -2.025545
  H 3.533858 1.760318 0.875955
  H 4.094600 0.382310 1.786949
  H 2.499255 -1.267336 -1.286180
  H 5.102390 -0.040912 -0.225403
  H 4.844949 -2.526174 -3.522284
  H 5.290017 -0.955258 -4.110795
  H 2.913523 -0.147565 -3.488498
  H 2.508983 -1.854673 -3.238947
  H 6.892647 -0.914567 -1.169216
 20
 0.680248
  H 1.473418 -0.249019 0.563803
  C 2.528827 -0.061611 0.417545
  C 3.175600 0.875861 1.339855
  H 2.508820 1.161493 2.149786
  C 3.139049 -0.699808 -0.640328
  C 4.495868 -0.576522 -0.941871
  C 5.179546 -1.085108 -2.050230
  C 4.640062 -1.459204 -3.383747
  C 3.208534 -1.092433 -3.744898
  H 3.066467 -1.262426 -4.811456
  O 6.487099 -1.165079 -2.018161
  H 3.471531 1.782574 0.805580
  H 4.091538 0.460840 1.753764
  H 2.532026 -1.358356 -1.239260
  H 5.104195 -0.006909 -0.247507
  H 4.783162 -2.541125 -3.506301
  H 5.326810 -1.003894 -4.105731
  H 3.005091 -0.044876 -3.539727
  H 2.482037 -1.705635 -3.225764
  H 6.900004 -0.958545 -1.157572
 20
 1.125377
  H 1.486446 -0.293083 0.583132
  C 2.532308 -0.076915 0.417449
  C 3.157543 0.921339 1.291590
  H 2.491436 1.219218 2.094465
  C 3.152358 -0.732989 -0.623062
  C 4.501924 -0.581649 -0.943435
  C 5.182859 -1.101539 -2.048702
  C 4.641847 -1.447878 -3.388365
  C 3.226694 -1.018350 -3.747387
  H 3.065786 -1.207103 -4.805132
  O 6.488223 -1.201903 -2.012377
  H 3.419529 1.812644 0.716416
  H 4.092281 0.552021 1.714006
  H 2.564956 -1.440356 -1.185400
  H 5.104967 0.030353 -0.280591
  H 4.739737 -2.532414 -3.515407
  H 5.349426 -1.016033 -4.103413
  H 3.080786 0.043289 -3.567902
  H 2.472823 -1.575941 -3.203831
  H 6.901297 -1.026725 -1.144602
 20
 0.473869
  H 1.463925 -0.030515 0.478366
  C 2.530776 0.087203 0.360128
  C 3.226296 0.925835 1.342194
  H 2.549803 1.278977 2.114126
  C 3.116151 -0.545019 -0.715746
  C 4.486919 -0.510314 -0.976905
  C 5.176366 -1.035393 -2.071230
  C 4.655511 -1.387038 -3.417475
  C 3.180570 -1.205370 -3.740892
  H 3.045699 -1.321479 -4.813727
  O 6.479828 -1.158955 -2.012688
  H 3.680587 1.791501 0.853677
  H 4.047938 0.380454 1.809928
  H 2.474542 -1.124512 -1.359150
  H 5.109377 -0.014065 -0.238626
  H 4.954340 -2.423426 -3.621130
  H 5.253684 -0.789945 -4.115405
  H 2.829550 -0.214678 -3.465228
  H 2.565748 -1.959644 -3.257287
  H 6.884520 -0.936177 -1.151884
 20
 0.937096
  H 1.461466 0.010527 0.477968
  C 2.532182 0.112695 0.355183
  C 3.245684 0.962618 1.324462
  H 2.562624 1.406444 2.044157
  C 3.106559 -0.547145 -0.706690
  C 4.479066 -0.539393 -0.966401
  C 5.166923 -1.055802 -2.069636
  C 4.662057 -1.314427 -3.439593
  C 3.169477 -1.269552 -3.724091
  H 3.019408 -1.361491 -4.797504
  O 6.462453 -1.228838 -1.997959
  H 3.792541 1.759832 0.817764
  H 3.995013 0.380707 1.865471
  H 2.458898 -1.136636 -1.334216
  H 5.113834 -0.049284 -0.234392
  H 5.076351 -2.274545 -3.763884
  H 5.167946 -0.572053 -4.068103
  H 2.728831 -0.328467 -3.406047
  H 2.647549 -2.098081 -3.251783
  H 6.863267 -1.049671 -1.123661
