 19
 0.000000
  H 1.435005 0.203209 0.558941
  C 2.498443 0.141745 0.405041
  H 3.149679 0.462123 1.201727
  C 2.996893 -0.329914 -0.769775
  C 4.389755 -0.416109 -0.985373
  C 5.061837 -0.863672 -2.101178
  C 4.601404 -1.377954 -3.383599
  C 3.131133 -1.513695 -3.723579
  C 2.938409 -2.077118 -5.128350
  H 6.143822 -0.836179 -2.032303
  H 2.310520 -0.639099 -1.539310
  H 5.005776 -0.084302 -0.158641
  H 5.094613 -2.355268 -3.515236
  H 5.095558 -0.763152 -4.154083
  H 2.641839 -0.537996 -3.674677
  H 2.641149 -2.184760 -3.014134
  H 3.384950 -1.429056 -5.878656
  H 1.879436 -2.167564 -5.354971
  H 3.384393 -3.064336 -5.222704
 19
 11.190948
  H 1.397000 0.247046 0.668231
  C 2.458487 0.186312 0.516154
  H 3.110694 0.505171 1.309059
  C 3.014903 -0.340611 -0.796415
  C 4.394123 -0.423647 -1.004187
  C 5.068876 -0.871584 -2.120921
  C 4.609575 -1.385795 -3.403136
  C 3.138259 -1.521544 -3.743149
  C 2.946231 -2.085024 -5.148067
  H 6.150528 -0.843293 -2.050070
  H 2.327540 -0.648367 -1.562398
  H 5.008025 -0.091125 -0.175662
  H 5.103420 -2.362414 -3.535397
  H 5.104366 -0.771966 -4.173580
  H 2.648987 -0.545892 -3.694215
  H 2.648279 -2.192563 -3.033700
  H 3.393074 -1.436751 -5.898137
  H 1.887315 -2.175694 -5.375248
  H 3.392516 -3.072230 -5.242106
 19
 32.326459
  H 1.371422 0.267583 0.719310
  C 2.437035 0.215244 0.588764
  H 3.151483 0.515289 1.336109
  C 3.019135 -0.371137 -0.873143
  C 4.397525 -0.433788 -1.029890
  C 5.070191 -0.873938 -2.127133
  C 4.612204 -1.386247 -3.404319
  C 3.139266 -1.519740 -3.738742
  C 2.958961 -2.084140 -5.145609
  H 6.149691 -0.838972 -2.039583
  H 2.258932 -0.653237 -1.576079
  H 5.006162 -0.103198 -0.205836
  H 5.110315 -2.360175 -3.547484
  H 5.111369 -0.782159 -4.180893
  H 2.654800 -0.543384 -3.692423
  H 2.654050 -2.192971 -3.030618
  H 3.406887 -1.432417 -5.891691
  H 1.901830 -2.177625 -5.379671
  H 3.406320 -3.071072 -5.234205
 19
 56.266061
  H 1.339300 0.304681 0.811994
  C 2.403707 0.260952 0.703459
  H 3.145225 0.548611 1.421997
  C 3.029904 -0.381984 -0.901194
  C 4.385124 -0.435330 -1.034327
  C 5.083590 -0.880657 -2.144413
  C 4.629238 -1.397110 -3.431514
  C 3.151090 -1.529199 -3.762579
  C 2.962376 -2.093706 -5.169019
  H 6.163904 -0.841230 -2.045693
  H 2.234735 -0.646356 -1.561080
  H 4.985942 -0.101963 -0.202864
  H 5.127649 -2.371593 -3.573389
  H 5.128847 -0.792113 -4.207747
  H 2.669230 -0.551974 -3.713986
  H 2.668262 -2.201076 -3.052000
  H 3.410648 -1.443299 -5.916186
  H 1.904532 -2.186010 -5.400201
  H 3.409962 -3.080617 -5.258908
 19
 79.869844
  H 1.300871 0.350245 0.925884
  C 2.364015 0.307342 0.819512
  H 3.113503 0.591058 1.528818
  C 3.035686 -0.392262 -0.927238
  C 4.383997 -0.444772 -1.058105
  C 5.089303 -0.892555 -2.174249
  C 4.639097 -1.405319 -3.452041
  C 3.165272 -1.536101 -3.779949
  C 2.974405 -2.100402 -5.185477
  H 6.168341 -0.852998 -2.075036
  H 2.227761 -0.652037 -1.575990
  H 4.985096 -0.110360 -0.223845
  H 5.136220 -2.378483 -3.592972
  H 5.137537 -0.800781 -4.226764
  H 2.684343 -0.557215 -3.730306
  H 2.683306 -2.208292 -3.067348
  H 3.422046 -1.450297 -5.933334
  H 1.915932 -2.192068 -5.415093
  H 3.421322 -3.087562 -5.275870
 19
 101.208873
  H 1.261851 0.389318 1.023445
  C 2.325690 0.350022 0.926025
  H 3.087961 0.628611 1.622531
  C 3.044172 -0.406354 -0.962229
  C 4.388040 -0.452780 -1.078050
  C 5.102187 -0.898851 -2.189947
  C 4.653719 -1.412596 -3.470164
  C 3.174232 -1.542432 -3.795843
  C 2.978120 -2.106890 -5.201633
  H 6.181167 -0.856438 -2.083627
  H 2.220106 -0.657771 -1.589996
  H 4.983946 -0.117049 -0.240657
  H 5.151660 -2.387107 -3.611664
  H 5.153009 -0.807572 -4.246206
  H 2.695303 -0.563221 -3.744449
  H 2.694201 -2.213578 -3.081712
  H 3.424454 -1.457263 -5.950634
  H 1.919057 -2.197376 -5.428353
  H 3.423714 -3.094514 -5.293119
 19
 119.598111
  H 1.224174 0.431217 1.127951
  C 2.288778 0.393848 1.035116
  H 3.064545 0.667856 1.719568
  C 3.048177 -0.420354 -0.996411
  C 4.386341 -0.462158 -1.101163
  C 5.110870 -0.907595 -2.211593
  C 4.665381 -1.420585 -3.490027
  C 3.188641 -1.548496 -3.811040
  C 2.987056 -2.112337 -5.215343
  H 6.188551 -0.862740 -2.099281
  H 2.205852 -0.663584 -1.603191
  H 4.977936 -0.125154 -0.260980
  H 5.162294 -2.394446 -3.631740
  H 5.163740 -0.816158 -4.265781
  H 2.712027 -0.568155 -3.757494
  H 2.710888 -2.218954 -3.094605
  H 3.431759 -1.463213 -5.965616
  H 1.927107 -2.201358 -5.438445
  H 3.431040 -3.100471 -5.308128
 19
 134.814284
  H 1.187661 0.473424 1.234072
  C 2.252186 0.437395 1.144483
  H 3.038276 0.706818 1.817744
  C 3.052042 -0.433826 -1.030738
  C 4.385357 -0.470886 -1.123602
  C 5.122401 -0.914626 -2.229404
  C 4.680520 -1.428108 -3.508752
  C 3.200867 -1.554820 -3.827193
  C 2.992785 -2.118905 -5.231434
  H 6.199049 -0.866649 -2.108971
  H 2.193410 -0.668178 -1.615307
  H 4.971449 -0.132188 -0.279160
  H 5.177592 -2.402783 -3.650171
  H 5.179301 -0.823292 -4.284964
  H 2.726303 -0.573312 -3.771682
  H 2.724915 -2.224408 -3.108343
  H 3.435790 -1.470516 -5.983424
  H 1.931872 -2.206305 -5.450713
  H 3.434878 -3.107801 -5.325566
 19
 146.945001
  H 1.151570 0.517911 1.344840
  C 2.216640 0.481627 1.254233
  H 3.012383 0.747873 1.918742
  C 3.052899 -0.448214 -1.065445
  C 4.381128 -0.480947 -1.148107
  C 5.132461 -0.922711 -2.249284
  C 4.694813 -1.436102 -3.528612
  C 3.216013 -1.561066 -3.842714
  C 3.000776 -2.124375 -5.245366
  H 6.207440 -0.871343 -2.120643
  H 2.177399 -0.673900 -1.627810
  H 4.961131 -0.140319 -0.299312
  H 5.191052 -2.410638 -3.669793
  H 5.192742 -0.831096 -4.304484
  H 2.743984 -0.578677 -3.784638
  H 2.742643 -2.229658 -3.121498
  H 3.441608 -1.476587 -5.998984
  H 1.938855 -2.209928 -5.459975
  H 3.440795 -3.113905 -5.341291
 19
 156.206160
  H 1.116673 0.563599 1.458474
  C 2.181650 0.525866 1.363712
  H 2.983604 0.789872 2.021798
  C 3.053107 -0.462871 -1.100642
  C 4.376647 -0.491066 -1.172637
  C 5.144244 -0.929829 -2.266744
  C 4.711350 -1.443826 -3.547838
  C 3.230669 -1.567277 -3.858086
  C 3.007074 -2.130199 -5.260242
  H 6.217340 -0.874479 -2.128451
  H 2.162189 -0.679582 -1.640076
  H 4.949191 -0.148096 -0.318382
  H 5.207089 -2.418963 -3.688542
  H 5.208684 -0.837875 -4.323675
  H 2.760990 -0.583519 -3.797200
  H 2.759752 -2.235141 -3.134023
  H 3.445506 -1.482998 -6.015857
  H 1.943869 -2.213751 -5.469735
  H 3.444827 -3.120582 -5.358300
 19
 162.871415
  H 1.080940 0.611863 1.579068
  C 2.146512 0.570145 1.473791
  H 2.950739 0.834236 2.131824
  C 3.051830 -0.477122 -1.135756
  C 4.370713 -0.501717 -1.199127
  C 5.155643 -0.937578 -2.286145
  C 4.727880 -1.451708 -3.567502
  C 3.247068 -1.573196 -3.872943
  C 3.014358 -2.135439 -5.273351
  H 6.226855 -0.878575 -2.138661
  H 2.147420 -0.685673 -1.654737
  H 4.935190 -0.156292 -0.338654
  H 5.222349 -2.427097 -3.707305
  H 5.223978 -0.845013 -4.342894
  H 2.780220 -0.588370 -3.809204
  H 2.778951 -2.239839 -3.146047
  H 3.450071 -1.489158 -6.031185
  H 1.949938 -2.216614 -5.476916
  H 3.449383 -3.126700 -5.373617
 19
 166.900229
  H 1.045418 0.667236 1.718233
  C 2.111104 0.616598 1.590399
  H 2.907847 0.885098 2.260117
  C 3.049762 -0.488303 -1.164781
  C 4.365061 -0.512043 -1.225907
  C 5.165724 -0.945790 -2.307209
  C 4.743914 -1.459324 -3.586408
  C 3.262068 -1.580120 -3.890605
  C 3.023442 -2.142499 -5.290454
  H 6.235753 -0.884156 -2.152633
  H 2.138116 -0.691656 -1.671251
  H 4.922399 -0.164193 -0.358975
  H 5.238166 -2.434938 -3.724077
  H 5.240053 -0.851522 -4.360639
  H 2.796593 -0.594307 -3.825256
  H 2.795031 -2.245868 -3.161593
  H 3.457470 -1.497068 -6.050159
  H 1.958102 -2.221996 -5.490155
  H 3.456465 -3.134596 -5.392107
 19
 168.586465
  H 1.011513 0.727350 1.869603
  C 2.075874 0.664234 1.710473
  H 2.857418 0.940348 2.400197
  C 3.047625 -0.498013 -1.190452
  C 4.360539 -0.521813 -1.251661
  C 5.174646 -0.953484 -2.327114
  C 4.758060 -1.466833 -3.604879
  C 3.276118 -1.587450 -3.909379
  C 3.034206 -2.149909 -5.308278
  H 6.243449 -0.889703 -2.166584
  H 2.131507 -0.698526 -1.690373
  H 4.910778 -0.171562 -0.378529
  H 5.252614 -2.442475 -3.740262
  H 5.254864 -0.858154 -4.377766
  H 2.811477 -0.601397 -3.843193
  H 2.809437 -2.252090 -3.179222
  H 3.467243 -1.505337 -6.069156
  H 1.968469 -2.228215 -5.505585
  H 3.465749 -3.142491 -5.410631
 19
 168.623946
  H 0.979053 0.789308 2.025168
  C 2.040809 0.712636 1.831958
  H 2.803678 0.997865 2.544509
  C 3.045660 -0.507613 -1.214370
  C 4.357049 -0.530888 -1.274756
  C 5.183016 -0.959946 -2.343586
  C 4.770984 -1.473548 -3.621329
  C 3.289073 -1.594363 -3.926895
  C 3.045215 -2.156972 -5.325585
  H 6.250743 -0.893878 -2.177073
  H 2.126308 -0.705927 -1.709088
  H 4.899602 -0.178407 -0.396000
  H 5.266401 -2.449123 -3.754883
  H 5.268879 -0.864033 -4.393014
  H 2.824698 -0.607982 -3.860010
  H 2.822339 -2.258324 -3.195815
  H 3.477657 -1.512878 -6.087285
  H 1.979119 -2.234532 -5.521474
  H 3.475818 -3.149962 -5.428467
