 23
 0.000000
  C 0.993551 0.115792 0.338479
  C 2.468792 0.128950 0.372828
  C 3.220402 0.606368 1.560484
  C 2.402664 1.085881 2.752930
  H 3.076357 1.403866 3.545002
  C 3.133795 -0.328699 -0.765311
  C 4.516239 -0.393425 -0.928292
  C 5.173337 -0.849944 -2.067840
  C 4.520917 -1.342911 -3.297259
  H 3.443473 -1.320891 -3.242845
  O 6.483813 -0.871637 -2.123667
  H 0.540679 0.482891 1.250583
  H 0.636826 -0.897665 0.147497
  H 0.637684 0.715278 -0.501036
  H 3.881097 1.420115 1.241908
  H 3.880826 -0.201569 1.893928
  H 1.774906 0.292223 3.151373
  H 1.775657 1.935032 2.491277
  H 2.509677 -0.657553 -1.583513
  H 5.143412 -0.065327 -0.111087
  H 4.858903 -2.359016 -3.496513
  H 4.859222 -0.746239 -4.143347
  H 6.932382 -0.549003 -1.319580
 23
 -0.473267
  C 1.006700 0.061973 0.341849
  C 2.479931 0.125662 0.366812
  C 3.222480 0.624956 1.549960
  C 2.396663 1.073344 2.749927
  H 3.063949 1.408745 3.539480
  C 3.150329 -0.304728 -0.771960
  C 4.535078 -0.330891 -0.941248
  C 5.183222 -0.800915 -2.079755
  C 4.502563 -1.296350 -3.295550
  H 3.527058 -0.849124 -3.438599
  O 6.491734 -0.862193 -2.139921
  H 0.547815 0.416894 1.254904
  H 0.683774 -0.965108 0.157501
  H 0.624868 0.644808 -0.498028
  H 3.853242 1.461669 1.228919
  H 3.912299 -0.161375 1.876950
  H 1.797021 0.258015 3.148345
  H 1.742501 1.903410 2.495912
  H 2.534714 -0.663645 -1.584051
  H 5.159254 0.018914 -0.130514
  H 4.382559 -2.378625 -3.220558
  H 5.132155 -1.107483 -4.160141
  H 6.957794 -0.557994 -1.339080
 23
 1.097021
  C 1.020762 -0.036654 0.374800
  C 2.489151 0.095774 0.376265
  C 3.222792 0.657842 1.535293
  C 2.393024 1.100623 2.732440
  H 3.054581 1.483274 3.505324
  C 3.162935 -0.327141 -0.763816
  C 4.543952 -0.308224 -0.950137
  C 5.192296 -0.713639 -2.113701
  C 4.494565 -1.186767 -3.328943
  H 3.769337 -0.461841 -3.686540
  O 6.474280 -0.987930 -2.096080
  H 0.558019 0.322574 1.285107
  H 0.745063 -1.081514 0.224128
  H 0.600193 0.503476 -0.474639
  H 3.810011 1.513360 1.184943
  H 3.950650 -0.087325 1.873070
  H 1.832895 0.271835 3.157809
  H 1.702267 1.896233 2.465894
  H 2.557486 -0.731182 -1.562598
  H 5.163472 0.077482 -0.152055
  H 3.966953 -2.112651 -3.101716
  H 5.224950 -1.394073 -4.105809
  H 6.952337 -0.730060 -1.285732
 23
 6.166913
  C 1.005376 -0.075619 0.426909
  C 2.474980 0.074049 0.389120
  C 3.230045 0.686198 1.511200
  C 2.430820 1.111054 2.734340
  H 3.104699 1.531294 3.473947
  C 3.118408 -0.338351 -0.769249
  C 4.489442 -0.279190 -1.004801
  C 5.192761 -0.667075 -2.142721
  C 4.570009 -1.146994 -3.395633
  H 4.065714 -0.339828 -3.923650
  O 6.426686 -1.103762 -1.975120
  H 0.562251 0.292374 1.342297
  H 0.738359 -1.126022 0.298677
  H 0.555278 0.446966 -0.420667
  H 3.765193 1.561278 1.124026
  H 4.002025 -0.019834 1.831143
  H 1.924901 0.267200 3.191426
  H 1.697967 1.872266 2.486457
  H 2.498531 -0.773974 -1.541385
  H 5.114257 0.022167 -0.172462
  H 3.822925 -1.904118 -3.161631
  H 5.331033 -1.583362 -4.035167
  H 6.899331 -0.760459 -1.193745
 23
 22.261711
  C 0.967919 -0.016192 0.499429
  C 2.421507 0.145255 0.387628
  C 3.224058 0.746897 1.479416
  C 2.501106 1.041806 2.789432
  H 3.202349 1.480363 3.494347
  C 3.008803 -0.274176 -0.802891
  C 4.369887 -0.293474 -1.075912
  C 5.113561 -0.563531 -2.223667
  C 4.744727 -1.217410 -3.503407
  H 4.333549 -0.513067 -4.226547
  O 6.288084 -1.138016 -1.836683
  H 0.577927 0.283751 1.461556
  H 0.698612 -1.058101 0.313615
  H 0.470271 0.556309 -0.279546
  H 3.650697 1.686637 1.103505
  H 4.072085 0.087836 1.692196
  H 2.105828 0.134132 3.237347
  H 1.693103 1.749581 2.649990
  H 2.351102 -0.732916 -1.536174
  H 4.993611 0.077106 -0.274276
  H 3.984935 -1.976814 -3.308939
  H 5.625558 -1.689003 -3.916801
  H 6.743967 -0.761786 -1.063465
 23
 49.724995
  C 0.924834 -0.138649 0.662024
  C 2.377854 0.045536 0.468320
  C 3.219981 0.717399 1.483730
  C 2.513792 1.265293 2.718562
  H 3.243098 1.718396 3.374678
  C 2.919445 -0.408467 -0.726989
  C 4.275122 -0.412449 -1.056409
  C 4.941174 -0.465765 -2.274614
  C 4.914312 -1.004493 -3.663155
  H 4.413358 -0.342514 -4.369395
  O 6.065837 -1.268250 -1.852094
  H 0.577323 0.204626 1.623371
  H 0.668570 -1.192610 0.538571
  H 0.373625 0.387513 -0.116170
  H 3.755110 1.542453 0.995953
  H 3.984406 0.010367 1.812350
  H 2.019926 0.476192 3.274280
  H 1.786443 2.024921 2.459851
  H 2.240687 -0.846563 -1.441621
  H 4.943174 -0.278591 -0.213228
  H 4.348431 -1.941094 -3.636426
  H 5.922076 -1.209867 -3.983532
  H 6.458566 -1.146667 -0.973841
 23
 72.918713
  C 0.888954 -0.143045 0.747898
  C 2.328148 0.049294 0.494449
  C 3.198467 0.772584 1.454161
  C 2.549242 1.266666 2.740374
  H 3.296315 1.770366 3.347472
  C 2.830826 -0.440016 -0.701567
  C 4.180193 -0.411674 -1.086319
  C 4.700753 -0.583670 -2.362281
  C 5.073152 -1.041117 -3.727225
  H 4.705334 -0.374033 -4.506342
  O 5.875260 -1.383751 -1.807385
  H 0.564740 0.275274 1.690228
  H 0.652642 -1.206875 0.725503
  H 0.304935 0.306299 -0.053211
  H 3.643872 1.629267 0.939061
  H 4.026832 0.110192 1.724716
  H 2.150586 0.443440 3.325498
  H 1.752689 1.979241 2.539184
  H 2.146090 -0.955511 -1.353318
  H 4.875163 -0.173758 -0.296735
  H 4.626459 -2.024605 -3.885128
  H 6.146027 -1.137777 -3.796074
  H 6.308651 -1.121048 -0.979385
 23
 88.232549
  C 0.916915 -0.197462 0.773274
  C 2.352621 0.021733 0.493763
  C 3.205704 0.815542 1.418784
  C 2.529253 1.374513 2.669589
  H 3.261361 1.926035 3.255194
  C 2.863888 -0.515953 -0.669339
  C 4.221660 -0.468190 -1.053833
  C 4.657250 -0.526685 -2.353199
  C 5.063909 -0.823135 -3.712600
  H 4.648547 -0.106787 -4.432430
  O 5.682331 -1.743786 -1.809773
  H 0.595753 0.260160 1.699660
  H 0.710975 -1.267642 0.805942
  H 0.307863 0.189009 -0.044671
  H 3.633868 1.650529 0.855185
  H 4.044620 0.186448 1.736485
  H 2.145626 0.578536 3.303948
  H 1.722529 2.058687 2.421561
  H 2.194718 -1.062018 -1.319478
  H 4.926039 -0.233439 -0.266240
  H 4.760607 -1.836206 -3.974806
  H 6.151372 -0.802895 -3.768732
  H 6.182208 -1.659053 -0.984789
 23
 102.034041
  C 0.965200 -0.318525 0.767185
  C 2.391477 -0.028310 0.475988
  C 3.201052 0.858938 1.361908
  C 2.499572 1.437089 2.586899
  H 3.200794 2.056077 3.141875
  C 2.933533 -0.594147 -0.642319
  C 4.311786 -0.463247 -1.027263
  C 4.639787 -0.473735 -2.319944
  C 4.955655 -0.686470 -3.661844
  H 4.527242 0.088028 -4.310298
  O 5.671174 -2.026288 -1.607245
  H 0.618352 0.168752 1.669797
  H 0.819688 -1.393667 0.865661
  H 0.339170 0.002839 -0.064566
  H 3.587107 1.689470 0.764522
  H 4.069276 0.286949 1.708037
  H 2.151664 0.652638 3.254670
  H 1.658371 2.065731 2.305840
  H 2.320322 -1.219708 -1.271813
  H 4.993696 -0.162982 -0.241379
  H 4.668829 -1.691713 -3.991346
  H 6.052576 -0.652068 -3.766776
  H 6.231975 -1.990642 -0.826618
 23
 107.012545
  C 1.065779 -0.536876 0.824899
  C 2.447473 -0.113439 0.460587
  C 3.191122 0.901366 1.272262
  C 2.476133 1.461231 2.496797
  H 3.125630 2.178629 2.992977
  C 2.995996 -0.675344 -0.639389
  C 4.354356 -0.402167 -1.088232
  C 4.612676 -0.354523 -2.363227
  C 4.844036 -0.493408 -3.698287
  H 4.407311 0.304738 -4.304257
  O 5.617182 -2.126008 -1.248439
  H 0.706430 -0.042591 1.718684
  H 1.037061 -1.613810 0.983869
  H 0.379695 -0.318662 0.008127
  H 3.460640 1.738827 0.623568
  H 4.126293 0.441421 1.609756
  H 2.239125 0.679199 3.214054
  H 1.562581 1.980803 2.219876
  H 2.439328 -1.391720 -1.220055
  H 5.030081 -0.003993 -0.339324
  H 4.579382 -1.497269 -4.056267
  H 5.937926 -0.453191 -3.835981
  H 6.175919 -2.061882 -0.470365
 23
 98.382575
  C 1.117986 -0.575569 0.767612
  C 2.521164 -0.178241 0.437029
  C 3.244287 0.861712 1.244665
  C 2.495229 1.448581 2.436233
  H 3.124213 2.189775 2.923343
  C 3.090271 -0.766335 -0.623856
  C 4.489087 -0.518237 -1.051707
  C 4.636196 -0.320123 -2.374276
  C 4.740941 -0.395397 -3.735997
  H 4.308605 0.458947 -4.270514
  O 5.371837 -2.015962 -0.953914
  H 0.736206 -0.048564 1.633409
  H 1.066223 -1.645551 0.961853
  H 0.464820 -0.370980 -0.079735
  H 3.519399 1.685385 0.580686
  H 4.174047 0.420194 1.616179
  H 2.255508 0.686083 3.172501
  H 1.579994 1.944640 2.124906
  H 2.537109 -1.465236 -1.231121
  H 5.154275 -0.059041 -0.328285
  H 4.372835 -1.357551 -4.126587
  H 5.818892 -0.425551 -3.971852
  H 5.908729 -1.955241 -0.155645
 23
 79.181426
  C 1.237775 -0.610475 0.582015
  C 2.652986 -0.212881 0.334017
  C 3.310772 0.864652 1.138338
  C 2.463544 1.526455 2.218726
  H 3.059644 2.281247 2.726241
  C 3.321785 -0.887345 -0.607780
  C 4.806964 -0.787490 -0.835528
  C 4.646630 -0.270016 -2.106086
  C 4.388253 -0.186579 -3.465827
  H 3.834749 0.710704 -3.760244
  O 5.441768 -2.100611 -0.823163
  H 0.787035 -0.046220 1.390445
  H 1.184559 -1.672139 0.839083
  H 0.651056 -0.472535 -0.323230
  H 3.659052 1.645395 0.452652
  H 4.196452 0.438202 1.614609
  H 2.139085 0.802900 2.967098
  H 1.594846 2.020009 1.799569
  H 2.824507 -1.634154 -1.208581
  H 5.405282 -0.266688 -0.077443
  H 3.884294 -1.082882 -3.865193
  H 5.367287 -0.158468 -3.957882
  H 6.024225 -2.198121 -0.052518
 23
 61.743923
  C 1.258470 -0.482425 0.335110
  C 2.714294 -0.237728 0.281793
  C 3.373979 0.756891 1.164439
  C 2.478947 1.531190 2.126943
  H 3.094719 2.194006 2.729503
  C 3.446079 -0.970686 -0.647010
  C 4.966580 -0.980090 -0.721130
  C 4.479185 -0.323237 -1.848817
  C 4.044147 -0.165979 -3.199724
  H 3.232932 0.557638 -3.287980
  O 5.701865 -2.164779 -0.790369
  H 0.760984 0.108955 1.093405
  H 1.058673 -1.537289 0.525915
  H 0.815965 -0.260169 -0.635735
  H 3.912786 1.471280 0.533207
  H 4.133834 0.232077 1.753091
  H 1.947324 0.867111 2.803120
  H 1.760963 2.146956 1.592615
  H 2.922455 -1.693907 -1.259533
  H 5.469836 -0.329935 -0.000549
  H 3.730789 -1.114753 -3.653864
  H 4.893098 0.190983 -3.788223
  H 6.370945 -2.239798 -0.112248
 23
 50.002934
  C 1.324287 -0.663667 0.482703
  C 2.706318 -0.209813 0.275939
  C 3.310162 0.868283 1.082207
  C 2.425692 1.527848 2.134759
  H 2.995072 2.300640 2.645101
  C 3.447549 -0.849308 -0.733520
  C 5.029979 -0.869068 -0.732891
  C 4.390580 -0.147738 -1.768072
  C 4.110370 -0.180006 -3.190993
  H 3.167203 0.312786 -3.415254
  O 5.763308 -2.001270 -0.964536
  H 0.820689 -0.134057 1.281884
  H 1.305919 -1.733301 0.695196
  H 0.757005 -0.539465 -0.441120
  H 3.681895 1.633997 0.390196
  H 4.200095 0.469041 1.582536
  H 2.095250 0.813085 2.883955
  H 1.557391 2.000926 1.684134
  H 2.943624 -1.646990 -1.271694
  H 5.423600 -0.266365 0.083241
  H 4.066919 -1.210168 -3.563590
  H 4.914122 0.317739 -3.734432
  H 6.389821 -2.196015 -0.253454
 23
 49.936544
  C 1.310140 -0.718118 0.563318
  C 2.671733 -0.243602 0.296445
  C 3.283818 0.873043 1.033752
  C 2.426932 1.567271 2.085177
  H 3.005653 2.360475 2.550854
  C 3.410353 -0.908573 -0.714577
  C 4.994398 -0.893697 -0.728675
  C 4.305164 -0.193515 -1.752262
  C 4.173546 -0.078809 -3.188521
  H 3.335335 0.560898 -3.458800
  O 5.743126 -2.020746 -1.035723
  H 0.810198 -0.154673 1.341168
  H 1.322777 -1.774186 0.837798
  H 0.721467 -0.668911 -0.354854
  H 3.626717 1.608851 0.294814
  H 4.198385 0.506922 1.515891
  H 2.119162 0.879781 2.867698
  H 1.544389 2.020354 1.641053
  H 2.930966 -1.776334 -1.162886
  H 5.484395 -0.335886 0.065420
  H 4.005406 -1.061900 -3.646617
  H 5.097390 0.312568 -3.610824
  H 6.305398 -2.264100 -0.287355
