 20
 0.000000
  C 1.008162 -0.071057 0.048563
  C 2.504014 -0.082980 0.025158
  C 3.218323 -0.596066 -0.982120
  C 4.656171 -0.606959 -1.003501
  C 5.376406 -1.122196 -2.014994
  C 6.814976 -1.131234 -2.032733
  C 7.534294 -1.642590 -3.036619
  C 9.024527 -1.660803 -3.072365
  H 0.649234 0.395715 0.964914
  H 0.611797 -1.085815 0.011236
  H 0.611797 0.495388 -0.794210
  H 3.005550 0.352326 0.879740
  H 2.706249 -1.029423 -1.832863
  H 5.161014 -0.172001 -0.149610
  H 4.872668 -1.557366 -2.869306
  H 7.320946 -0.696440 -1.179164
  H 7.036998 -2.079274 -3.893884
  H 9.457318 -1.207277 -2.182025
  H 9.384480 -1.114407 -3.945748
  H 9.384477 -2.688521 -3.143918
 20
 -0.221357
  C 1.003597 -0.057566 0.052627
  C 2.496553 -0.075738 0.024602
  C 3.217616 -0.607818 -0.966789
  C 4.652781 -0.614880 -1.000575
  C 5.379835 -1.137374 -2.003837
  C 6.815876 -1.140353 -2.034799
  C 7.542385 -1.647824 -3.033436
  C 9.029649 -1.656770 -3.077375
  H 0.633537 0.290192 1.014232
  H 0.600037 -1.052552 -0.140890
  H 0.617471 0.609071 -0.721775
  H 3.002954 0.382290 0.859816
  H 2.713084 -1.066366 -1.805844
  H 5.158316 -0.163503 -0.155670
  H 4.876326 -1.585974 -2.849022
  H 7.316459 -0.696172 -1.182295
  H 7.045811 -2.090307 -3.888378
  H 9.451970 -1.194299 -2.185445
  H 9.385849 -1.116653 -3.957230
  H 9.398861 -2.678651 -3.151894
 20
 -0.401920
  C 1.002971 -0.034069 0.044734
  C 2.495182 -0.087453 0.019967
  C 3.211484 -0.625408 -0.971276
  C 4.646563 -0.646857 -0.999803
  C 5.374878 -1.154015 -2.010206
  C 6.810766 -1.163182 -2.032614
  C 7.543850 -1.640800 -3.041338
  C 9.032012 -1.652570 -3.072900
  H 0.635742 0.160638 1.050158
  H 0.572384 -0.964518 -0.318684
  H 0.645871 0.769647 -0.602955
  H 3.007793 0.363398 0.859244
  H 2.703843 -1.075299 -1.815582
  H 5.153025 -0.214830 -0.143526
  H 4.873445 -1.580371 -2.868169
  H 7.306990 -0.748102 -1.162762
  H 7.055277 -2.052482 -3.914657
  H 9.446920 -1.221677 -2.164561
  H 9.397112 -1.085078 -3.931095
  H 9.399824 -2.673712 -3.177996
 20
 -0.558519
  C 0.994610 -0.065256 0.038954
  C 2.488699 -0.103494 0.020654
  C 3.214112 -0.566628 -1.000289
  C 4.650374 -0.605270 -1.013334
  C 5.378814 -1.087943 -2.033656
  C 6.815686 -1.136832 -2.042226
  C 7.538128 -1.642250 -3.043439
  C 9.026972 -1.708180 -3.067068
  H 0.620465 -0.056590 1.056491
  H 0.576570 -0.920522 -0.486765
  H 0.635246 0.835403 -0.455251
  H 2.992431 0.282476 0.901139
  H 2.713862 -0.953080 -1.877718
  H 5.152972 -0.219667 -0.135140
  H 4.875297 -1.471307 -2.913401
  H 7.318515 -0.736457 -1.166242
  H 7.035838 -2.045699 -3.914653
  H 9.455835 -1.269689 -2.161426
  H 9.415942 -1.175588 -3.934948
  H 9.356848 -2.741891 -3.146858
 20
 -0.885616
  C 0.994262 -0.029786 0.019657
  C 2.483560 -0.115173 0.006253
  C 3.205593 -0.592737 -1.010465
  C 4.640428 -0.647620 -1.016792
  C 5.371782 -1.117502 -2.042195
  C 6.806733 -1.174811 -2.041504
  C 7.537510 -1.639112 -3.057920
  C 9.025162 -1.708023 -3.069909
  H 0.609315 -0.187217 1.024305
  H 0.552697 -0.762100 -0.652833
  H 0.673916 0.962602 -0.303882
  H 2.988783 0.260951 0.886972
  H 2.703646 -0.970571 -1.893365
  H 5.141798 -0.282135 -0.129225
  H 4.872445 -1.479657 -2.932101
  H 7.302069 -0.814325 -1.148079
  H 7.044718 -1.996477 -3.952990
  H 9.442601 -1.323944 -2.142576
  H 9.424548 -1.128047 -3.903084
  H 9.354659 -2.738715 -3.203790
 20
 -1.135587
  C 0.991425 -0.006897 -0.003585
  C 2.476983 -0.124938 -0.009563
  C 3.198457 -0.599686 -1.027900
  C 4.631670 -0.687997 -1.020062
  C 5.365332 -1.132127 -2.055550
  C 6.799086 -1.210148 -2.044053
  C 7.534254 -1.629372 -3.076738
  C 9.021091 -1.717881 -3.078185
  H 0.584175 -0.352497 0.946068
  H 0.548403 -0.580225 -0.813160
  H 0.699678 1.037804 -0.122322
  H 2.980047 0.221676 0.884189
  H 2.697772 -0.945660 -1.924519
  H 5.130574 -0.364521 -0.114609
  H 4.869275 -1.450713 -2.963871
  H 7.290077 -0.904662 -1.127269
  H 7.045790 -1.930891 -3.994450
  H 9.433206 -1.394607 -2.127069
  H 9.437068 -1.094896 -3.872921
  H 9.338952 -2.743987 -3.269077
 20
 -1.236539
  C 0.987048 -0.021712 -0.023690
  C 2.467242 -0.179786 -0.009322
  C 3.203964 -0.524489 -1.067215
  C 4.632639 -0.664212 -1.036759
  C 5.370823 -1.053182 -2.089948
  C 6.798596 -1.201838 -2.056612
  C 7.525875 -1.625248 -3.092227
  C 9.004861 -1.795796 -3.078743
  H 0.534769 -0.594156 0.786047
  H 0.566106 -0.352930 -0.970036
  H 0.719540 1.025340 0.127591
  H 2.951956 0.014221 0.939509
  H 2.720250 -0.720696 -2.016220
  H 5.121404 -0.440226 -0.096821
  H 4.882019 -1.278192 -3.030030
  H 7.288095 -0.954533 -1.122426
  H 7.031393 -1.872676 -4.022639
  H 9.421572 -1.524842 -2.111674
  H 9.464735 -1.173515 -3.847458
  H 9.268109 -2.831143 -3.297964
 20
 -1.032489
  C 0.980001 -0.057341 -0.055235
  C 2.455534 -0.247462 -0.014369
  C 3.225469 -0.407107 -1.092240
  C 4.647368 -0.605794 -1.044213
  C 5.388684 -0.941220 -2.112973
  C 6.804332 -1.177266 -2.069587
  C 7.508728 -1.633361 -3.107226
  C 8.972180 -1.906820 -3.088293
  H 0.484525 -0.805144 0.563833
  H 0.603817 -0.139661 -1.072018
  H 0.712827 0.924647 0.337714
  H 2.903547 -0.252545 0.971519
  H 2.772392 -0.412873 -2.075994
  H 5.122765 -0.489978 -0.078156
  H 4.908044 -1.064493 -3.075745
  H 7.300446 -0.978360 -1.127532
  H 7.001120 -1.838808 -4.041297
  H 9.400329 -1.680230 -2.114475
  H 9.479547 -1.306409 -3.844637
  H 9.163989 -2.954285 -3.322210
 20
 -0.415901
  C 0.974880 -0.115263 -0.102442
  C 2.449214 -0.313413 -0.040160
  C 3.256698 -0.283538 -1.100781
  C 4.672886 -0.525669 -1.043459
  C 5.414571 -0.822800 -2.122404
  C 6.815178 -1.139518 -2.079256
  C 7.481262 -1.654728 -3.113890
  C 8.923496 -2.025678 -3.101395
  H 0.463166 -0.958211 0.361379
  H 0.637321 -0.026385 -1.132448
  H 0.687075 0.786494 0.438455
  H 2.859349 -0.506893 0.942877
  H 2.838836 -0.107183 -2.085551
  H 5.136270 -0.493436 -0.064712
  H 4.940731 -0.867772 -3.095020
  H 7.325640 -0.963930 -1.140186
  H 6.950326 -1.843040 -4.037809
  H 9.372994 -1.816581 -2.133386
  H 9.464636 -1.469371 -3.868793
  H 9.042872 -3.086157 -3.323484
 20
 0.466615
  C 0.973829 -0.168961 -0.170802
  C 2.447007 -0.365475 -0.086812
  C 3.288612 -0.173135 -1.101976
  C 4.701776 -0.446588 -1.041511
  C 5.439407 -0.724920 -2.126822
  C 6.827191 -1.101843 -2.092505
  C 7.451560 -1.668455 -3.125753
  C 8.872288 -2.111937 -3.128232
  H 0.459580 -1.065818 0.171933
  H 0.666734 0.038810 -1.193520
  H 0.659865 0.661039 0.463319
  H 2.825194 -0.707075 0.868107
  H 2.902790 0.150413 -2.061279
  H 5.155750 -0.475718 -0.059096
  H 4.968828 -0.714902 -3.102324
  H 7.356918 -0.934321 -1.162803
  H 6.892142 -1.852173 -4.034656
  H 9.347288 -1.907841 -2.171590
  H 9.427584 -1.598647 -3.913640
  H 8.934191 -3.181226 -3.331422
 20
 1.520489
  C 0.986683 -0.216246 -0.218406
  C 2.459564 -0.406001 -0.110994
  C 3.328190 -0.076392 -1.064353
  C 4.741210 -0.362432 -1.000072
  C 5.472890 -0.624776 -2.091652
  C 6.848661 -1.046258 -2.072073
  C 7.420528 -1.673479 -3.099974
  C 8.821757 -2.175343 -3.127018
  H 0.478396 -1.152786 0.007232
  H 0.706680 0.098704 -1.221148
  H 0.641094 0.535544 0.491814
  H 2.811974 -0.873296 0.799621
  H 2.968517 0.363105 -1.986860
  H 5.190193 -0.428101 -0.017241
  H 4.999421 -0.583198 -3.065142
  H 7.405335 -0.869253 -1.160588
  H 6.823864 -1.866929 -3.983174
  H 9.332611 -1.958079 -2.192079
  H 9.373987 -1.712355 -3.945666
  H 8.834537 -3.252696 -3.293780
 20
 2.690726
  C 0.995274 -0.272075 -0.267466
  C 2.467252 -0.456784 -0.136870
  C 3.358696 -0.012048 -1.018259
  C 4.772523 -0.310552 -0.950183
  C 5.496803 -0.563529 -2.047449
  C 6.863012 -1.021100 -2.045789
  C 7.385368 -1.692325 -3.072033
  C 8.767730 -2.241714 -3.127366
  H 0.495660 -1.229996 -0.134704
  H 0.737404 0.122194 -1.247973
  H 0.621396 0.415272 0.492207
  H 2.799202 -1.027006 0.721416
  H 3.022122 0.527246 -1.895565
  H 5.217571 -0.405552 0.031870
  H 5.018873 -0.496204 -3.017470
  H 7.446263 -0.839721 -1.152043
  H 6.753038 -1.888379 -3.929486
  H 9.313937 -2.017016 -2.214375
  H 9.309317 -1.819245 -3.974470
  H 8.739875 -3.322964 -3.264797
 20
 3.721075
  C 0.990518 -0.302467 -0.334502
  C 2.458492 -0.524960 -0.211164
  C 3.373665 0.028376 -1.001493
  C 4.785307 -0.303902 -0.947415
  C 5.498554 -0.555611 -2.049597
  C 6.859951 -1.034965 -2.055165
  C 7.371799 -1.718504 -3.076639
  C 8.746816 -2.285987 -3.125722
  H 0.481814 -1.266297 -0.391397
  H 0.754978 0.268218 -1.228169
  H 0.606482 0.232286 0.532468
  H 2.766181 -1.225587 0.559087
  H 3.065545 0.691909 -1.793598
  H 5.233696 -0.423749 0.030361
  H 5.019999 -0.466499 -3.015129
  H 7.447566 -0.860974 -1.161996
  H 6.741709 -1.910829 -3.938268
  H 9.303279 -2.038823 -2.226118
  H 9.284742 -1.900359 -3.990877
  H 8.704230 -3.369242 -3.225373
 20
 3.260528
  C 0.979849 -0.367785 -0.360500
  C 2.452888 -0.523473 -0.202042
  C 3.353644 -0.029902 -1.047516
  C 4.771361 -0.319662 -0.970598
  C 5.495316 -0.587103 -2.064497
  C 6.863465 -1.040946 -2.060270
  C 7.381679 -1.732074 -3.076082
  C 8.765629 -2.277196 -3.129636
  H 0.515598 -1.353467 -0.348162
  H 0.738236 0.117941 -1.303319
  H 0.557780 0.220301 0.454581
  H 2.776893 -1.128562 0.635379
  H 3.024971 0.538494 -1.909622
  H 5.214899 -0.402072 0.012887
  H 5.014781 -0.536726 -3.034372
  H 7.450539 -0.840113 -1.173136
  H 6.743066 -1.949580 -3.923695
  H 9.321895 -2.018799 -2.231715
  H 9.294357 -1.882487 -3.997863
  H 8.741064 -3.362969 -3.228557
 20
 3.277401
  C 0.985416 -0.382094 -0.377600
  C 2.458663 -0.487027 -0.175461
  C 3.361972 -0.042514 -1.045350
  C 4.776552 -0.321893 -0.949959
  C 5.514451 -0.559041 -2.042976
  C 6.872445 -1.033039 -2.041894
  C 7.373806 -1.713715 -3.072830
  C 8.747436 -2.283135 -3.147137
  H 0.549820 -1.379049 -0.307684
  H 0.757656 0.027256 -1.361156
  H 0.523657 0.250991 0.379995
  H 2.779800 -1.026124 0.706265
  H 3.032364 0.454069 -1.950438
  H 5.202127 -0.440760 0.037925
  H 5.044320 -0.476656 -3.015611
  H 7.463111 -0.858377 -1.151742
  H 6.718929 -1.907402 -3.915450
  H 9.308426 -2.068053 -2.240510
  H 9.284030 -1.865732 -4.000198
  H 8.702929 -3.363884 -3.286925
