 22
 0.000000
  C 0.956024 0.054285 0.173662
  C 2.458412 0.058808 0.093487
  C 3.258000 -0.013810 1.380489
  C 2.473440 -0.087498 2.686339
  H 3.172551 -0.134458 3.518619
  C 3.080129 0.126331 -1.103129
  C 2.325162 0.199658 -2.402678
  H 1.251391 0.191865 -2.264533
  C 4.531282 0.133252 -1.225753
  C 5.217957 0.197309 -2.361062
  H 6.295059 0.197340 -2.361587
  H 0.603325 -0.003409 1.196085
  H 0.546916 -0.800423 -0.364918
  H 0.546918 0.964159 -0.265345
  H 3.907553 0.865322 1.432480
  H 3.907560 -0.893211 1.333250
  H 1.847183 -0.976204 2.723446
  H 1.847179 0.791385 2.823188
  H 2.598165 -0.645032 -3.035046
  H 2.598165 1.110123 -2.936007
  H 5.092422 0.081258 -0.304281
  H 4.759601 0.252145 -3.332888
 22
 12.501300
  C 0.954391 0.053423 0.188949
  C 2.451904 0.057847 0.110516
  C 3.265787 -0.013453 1.374157
  C 2.409266 -0.095417 2.826659
  H 3.123029 -0.141463 3.642754
  C 3.111182 0.130447 -1.176071
  C 2.337424 0.202927 -2.460597
  H 1.265612 0.194058 -2.303394
  C 4.554487 0.136925 -1.290843
  C 5.246762 0.200791 -2.422766
  H 6.323671 0.200452 -2.416740
  H 0.604472 -0.004329 1.212396
  H 0.544277 -0.800824 -0.350938
  H 0.544280 0.962985 -0.251408
  H 3.911362 0.865134 1.430384
  H 3.911371 -0.892790 1.331190
  H 1.789382 -0.984878 2.860468
  H 1.789373 0.784592 2.960316
  H 2.599626 -0.642379 -3.097008
  H 2.599625 1.114456 -2.997872
  H 5.111139 0.084741 -0.366007
  H 4.792159 0.255711 -3.396090
 22
 35.724221
  C 0.972468 0.054378 0.172014
  C 2.463509 0.058596 0.097211
  C 3.311892 -0.011035 1.331232
  C 2.327434 -0.103530 2.970359
  H 3.095402 -0.146295 3.728203
  C 3.128929 0.133183 -1.224661
  C 2.338582 0.204025 -2.480244
  H 1.272566 0.193799 -2.299284
  C 4.554126 0.138863 -1.325280
  C 5.251458 0.203327 -2.467785
  H 6.331273 0.203047 -2.462659
  H 0.639818 -0.003080 1.190305
  H 0.560335 -0.794044 -0.363989
  H 0.560342 0.957710 -0.265141
  H 3.925661 0.876041 1.472160
  H 3.925632 -0.908295 1.371464
  H 1.739258 -1.006840 2.929911
  H 1.739258 0.798594 3.031792
  H 2.586761 -0.637989 -3.120148
  H 2.586780 1.112755 -3.021437
  H 5.106675 0.086533 -0.397732
  H 4.784260 0.258166 -3.439725
 22
 62.656804
  C 1.040930 0.054418 0.171237
  C 2.516334 0.060760 0.058876
  C 3.369405 -0.006620 1.253110
  C 2.198094 -0.111915 3.119075
  H 2.982864 -0.153067 3.848428
  C 3.144600 0.134429 -1.246729
  C 2.329485 0.204781 -2.493638
  H 1.252647 0.193191 -2.288547
  C 4.572206 0.140965 -1.362469
  C 5.253404 0.205924 -2.513788
  H 6.328262 0.206555 -2.525090
  H 0.747719 -0.004614 1.217501
  H 0.612296 -0.798847 -0.354197
  H 0.612299 0.961368 -0.254877
  H 3.952500 0.878452 1.431351
  H 3.952464 -0.906066 1.330640
  H 1.631075 -1.016501 3.024086
  H 1.631109 0.797558 3.126460
  H 2.562447 -0.642890 -3.137946
  H 2.562471 1.119653 -3.038586
  H 5.133643 0.088750 -0.437087
  H 4.772751 0.259785 -3.468559
 22
 84.877564
  C 1.072944 0.054738 0.165375
  C 2.564187 0.063724 0.006185
  C 3.423871 -0.003037 1.189051
  C 2.085291 -0.122369 3.302998
  H 2.910484 -0.161869 4.004598
  C 3.151967 0.136061 -1.275422
  C 2.330610 0.206536 -2.524145
  H 1.266376 0.195250 -2.324783
  C 4.579962 0.144124 -1.418120
  C 5.248928 0.208979 -2.567383
  H 6.321967 0.209993 -2.585943
  H 0.818865 -0.004720 1.218753
  H 0.626990 -0.803228 -0.355995
  H 0.626988 0.965925 -0.256145
  H 3.987961 0.900135 1.422634
  H 3.987963 -0.926748 1.319518
  H 1.527058 -1.042412 3.170917
  H 1.527041 0.806993 3.275236
  H 2.570821 -0.641245 -3.171802
  H 2.570801 1.121752 -3.072307
  H 5.140214 0.091683 -0.489201
  H 4.757494 0.262938 -3.523950
