 23
 0.000000
  C 1.018728 0.109195 0.322242
  C 2.493193 0.125587 0.363532
  C 3.239934 0.602960 1.551752
  C 2.418057 1.080958 2.741656
  H 3.086130 1.400781 3.538033
  C 3.155396 -0.330323 -0.771271
  C 4.538850 -0.395531 -0.934474
  C 5.194789 -0.852911 -2.074573
  C 4.537641 -1.346404 -3.304258
  H 3.456948 -1.329040 -3.261438
  O 6.506073 -0.876785 -2.135624
  H 0.560877 0.475024 1.232836
  H 0.664657 -0.905374 0.134401
  H 0.664992 0.712254 -0.515143
  H 3.899403 1.418376 1.235423
  H 3.899433 -0.204608 1.887480
  H 1.787069 0.285968 3.132569
  H 1.787250 1.925552 2.474043
  H 2.531594 -0.659070 -1.589590
  H 5.156603 -0.064825 -0.110603
  H 4.882202 -2.361736 -3.503418
  H 4.882497 -0.750626 -4.150147
  H 6.960174 -0.554391 -1.333686
 23
 16.455215
  C 0.969549 0.134680 0.385628
  C 2.521476 0.084912 0.262580
  C 3.318793 0.556166 1.435306
  C 2.548438 1.045874 2.654116
  H 3.258811 1.352242 3.417041
  C 2.960328 -0.392829 -0.926026
  C 4.305296 -0.381595 -0.899535
  C 5.136184 -0.822305 -1.998563
  C 4.626590 -1.338782 -3.285545
  H 3.542893 -1.362014 -3.343984
  O 6.473250 -0.787397 -1.913894
  H 0.611518 0.513669 1.328867
  H 0.575660 -0.865412 0.231839
  H 0.576117 0.750878 -0.417174
  H 3.968635 1.377446 1.120774
  H 3.968743 -0.254280 1.776560
  H 1.927318 0.262117 3.078180
  H 1.927519 1.905392 2.418151
  H 2.319773 -0.716686 -1.731732
  H 4.868346 -0.041218 -0.051691
  H 5.025169 -2.341751 -3.448760
  H 5.025609 -0.727242 -4.096817
  H 6.838725 -0.445354 -1.062113
 23
 55.987740
  C 0.990781 0.144199 0.403830
  C 2.598955 0.054458 0.185721
  C 3.371275 0.529931 1.374179
  C 2.605273 1.024772 2.605507
  H 3.336427 1.323717 3.354574
  C 2.853025 -0.427463 -1.013401
  C 4.159388 -0.372695 -0.879047
  C 5.106060 -0.804798 -1.957611
  C 4.669342 -1.331493 -3.260305
  H 3.593716 -1.373430 -3.356208
  O 6.391769 -0.732276 -1.789092
  H 0.672603 0.527678 1.359593
  H 0.589544 -0.858701 0.264177
  H 0.592146 0.774660 -0.389966
  H 4.013285 1.364817 1.076171
  H 4.010777 -0.281302 1.736111
  H 1.988878 0.247023 3.044848
  H 1.991838 1.892582 2.385051
  H 2.186886 -0.739291 -1.791137
  H 4.714611 -0.035032 -0.035626
  H 5.091063 -2.325700 -3.406211
  H 5.086522 -0.715029 -4.056281
  H 6.689668 -0.380717 -0.923328
 23
 105.946014
  C 0.976125 0.158699 0.437686
  C 2.679594 0.033342 0.135583
  C 3.402350 0.519394 1.349682
  C 2.622478 1.013994 2.577797
  H 3.355268 1.314710 3.330073
  C 2.784898 -0.458030 -1.081616
  C 4.072683 -0.362041 -0.851726
  C 5.101625 -0.799807 -1.947389
  C 4.695799 -1.328135 -3.254032
  H 3.619756 -1.377524 -3.366818
  O 6.379931 -0.708561 -1.732635
  H 0.689949 0.541567 1.391409
  H 0.585762 -0.844263 0.306735
  H 0.589439 0.795800 -0.349899
  H 4.042091 1.361736 1.059619
  H 4.038676 -0.292249 1.723064
  H 2.006641 0.233942 3.017537
  H 2.010111 1.883487 2.354201
  H 2.102868 -0.761382 -1.835938
  H 4.681680 -0.040624 -0.046929
  H 5.125644 -2.318375 -3.394032
  H 5.120082 -0.709809 -4.043256
  H 6.652190 -0.351509 -0.849479
 23
 153.429649
  C 0.915475 0.175283 0.462301
  C 2.755517 0.011148 0.117045
  C 3.430244 0.520538 1.366804
  C 2.628324 1.015452 2.560304
  H 3.345021 1.324536 3.320503
  C 2.753462 -0.503860 -1.102564
  C 4.033483 -0.352390 -0.808381
  C 5.124029 -0.798606 -1.965077
  C 4.717719 -1.317948 -3.267722
  H 3.644859 -1.362030 -3.373136
  O 6.402538 -0.710283 -1.732770
  H 0.635105 0.561908 1.420118
  H 0.549496 -0.833712 0.329482
  H 0.557144 0.817251 -0.331864
  H 4.072858 1.365678 1.080192
  H 4.068664 -0.287119 1.758822
  H 2.007930 0.235597 2.992292
  H 2.016264 1.878725 2.316244
  H 2.052895 -0.808303 -1.840736
  H 4.721384 -0.064453 -0.042319
  H 5.142848 -2.310359 -3.416287
  H 5.138844 -0.694589 -4.056029
  H 6.661308 -0.358553 -0.856962
 23
 132.368414
  C 0.303933 0.183063 0.475790
  C 3.320317 0.049240 0.221196
  C 3.681529 0.618787 1.497761
  C 2.537424 0.940340 2.461061
  H 2.975656 1.366445 3.360427
  C 2.997126 -0.509216 -0.854352
  C 4.568338 -0.363674 -0.828829
  C 5.194903 -0.763313 -1.972419
  C 4.566970 -1.244129 -3.237472
  H 3.487908 -1.185802 -3.235987
  O 6.533888 -0.855247 -2.034602
  H -0.054196 0.580964 1.401703
  H 0.247225 -0.880008 0.359511
  H 0.167882 0.787230 -0.398434
  H 4.241488 1.540536 1.317044
  H 4.339092 -0.097604 2.001007
  H 1.994015 0.047099 2.747639
  H 1.859927 1.677085 2.045601
  H 2.258994 -0.839536 -1.537882
  H 5.338389 -0.097568 -0.114305
  H 4.874445 -2.272801 -3.420028
  H 4.956211 -0.649684 -4.061817
  H 7.016908 -0.523286 -1.261048
 23
 103.832525
  C 0.288794 0.100045 0.321334
  C 3.283009 0.139054 0.557573
  C 3.595259 0.722987 1.807306
  C 2.325581 1.056161 2.630726
  H 2.631870 1.515985 3.565107
  C 3.427824 -0.427576 -0.584049
  C 4.840115 -0.478405 -0.971234
  C 5.262216 -0.881425 -2.187449
  C 4.418608 -1.246588 -3.360435
  H 3.360112 -1.098826 -3.192038
  O 6.570770 -1.028740 -2.449563
  H -0.188118 0.490808 1.195547
  H 0.448350 -0.955180 0.241568
  H 0.408292 0.727669 -0.537142
  H 4.121049 1.669266 1.638987
  H 4.207372 0.037450 2.403124
  H 1.770666 0.149575 2.848097
  H 1.697230 1.751367 2.083887
  H 2.712008 -0.781982 -1.299528
  H 5.586127 -0.249791 -0.226951
  H 4.606442 -2.286237 -3.622570
  H 4.727436 -0.643497 -4.212516
  H 7.144240 -0.760555 -1.714555
