 32
 0.000000
  C 0.983575 0.134803 0.386678
  C 2.460951 0.140195 0.399644
  C 3.234683 0.611656 1.573007
  C 2.448824 1.099301 2.787116
  C 3.394679 1.545572 3.897730
  C 3.081586 -0.323379 -0.754571
  C 4.457978 -0.411212 -0.973713
  C 5.125625 -0.864880 -2.104584
  C 4.614873 -1.386164 -3.403838
  C 3.122672 -1.501137 -3.691384
  C 2.899187 -2.063404 -5.092789
  O 6.450062 -0.866083 -2.107960
  H 0.540793 0.503488 1.304712
  H 0.617989 -0.878409 0.214488
  H 0.617652 0.747296 -0.438466
  H 3.892198 1.424605 1.244121
  H 3.892433 -0.202713 1.897862
  H 1.811281 0.300820 3.171350
  H 1.811113 1.941587 2.512242
  H 4.030635 0.724689 4.222494
  H 2.827282 1.891314 4.758621
  H 4.030409 2.363123 3.564277
  H 2.421850 -0.640470 -1.543924
  H 5.086425 -0.082158 -0.154069
  H 5.069535 -2.375263 -3.532497
  H 5.070012 -0.760654 -4.180514
  H 2.648916 -0.520234 -3.637875
  H 2.648402 -2.172738 -2.974766
  H 3.338652 -1.416211 -5.848485
  H 1.834452 -2.145240 -5.297568
  H 3.338170 -3.053687 -5.191427
  H 6.827824 -0.531164 -1.272792
 32
 -0.284578
  C 0.958701 -0.012954 0.476495
  C 2.431632 0.037162 0.435995
  C 3.226548 0.595881 1.558940
  C 2.462890 1.140992 2.763225
  C 3.431775 1.702182 3.798177
  C 3.042551 -0.444811 -0.716771
  C 4.420688 -0.495541 -0.932792
  C 5.108284 -0.941977 -2.056288
  C 4.613030 -1.417205 -3.378868
  C 3.126413 -1.459868 -3.708460
  C 2.931169 -1.912740 -5.154175
  O 6.428055 -0.962294 -2.028043
  H 0.548520 0.244353 1.443950
  H 0.604709 -1.001192 0.182220
  H 0.552410 0.681364 -0.266296
  H 3.860651 1.399207 1.167046
  H 3.915880 -0.181484 1.914129
  H 1.876588 0.349812 3.229967
  H 1.784171 1.935632 2.451532
  H 4.110995 0.932232 4.153001
  H 2.887733 2.089156 4.655023
  H 4.020548 2.515156 3.380152
  H 2.383216 -0.811363 -1.484679
  H 5.048798 -0.159778 -0.123292
  H 5.038713 -2.417815 -3.523084
  H 5.119469 -0.794122 -4.125032
  H 2.685059 -0.469948 -3.594607
  H 2.614086 -2.167330 -3.058656
  H 3.411467 -1.226316 -5.845210
  H 1.872029 -1.951169 -5.399029
  H 3.350744 -2.906008 -5.311976
  H 6.823947 -0.663423 -1.188552
 32
 -0.530288
  C 0.977284 -0.136591 0.538153
  C 2.445575 -0.044601 0.463596
  C 3.235206 0.583440 1.552670
  C 2.463343 1.170271 2.731155
  C 3.418720 1.830834 3.718436
  C 3.055228 -0.532882 -0.687657
  C 4.430891 -0.551511 -0.918667
  C 5.116765 -0.988450 -2.047590
  C 4.616643 -1.440819 -3.371721
  C 3.131036 -1.437312 -3.705050
  C 2.930550 -1.819646 -5.168796
  O 6.435729 -1.009688 -2.024225
  H 0.597576 -0.025856 1.547760
  H 0.622097 -1.073090 0.107913
  H 0.540833 0.662712 -0.068442
  H 3.849756 1.377910 1.121428
  H 3.941482 -0.161512 1.941485
  H 1.913468 0.387364 3.253273
  H 1.750985 1.913864 2.380309
  H 4.134623 1.109380 4.110202
  H 2.867004 2.246281 4.559229
  H 3.971120 2.643821 3.243942
  H 2.398943 -0.938173 -1.436834
  H 5.063923 -0.199776 -0.110138
  H 5.015717 -2.450786 -3.524241
  H 5.143534 -0.822940 -4.111327
  H 2.709121 -0.443025 -3.544942
  H 2.601026 -2.164762 -3.088727
  H 3.422911 -1.110540 -5.827036
  H 1.873081 -1.829201 -5.415271
  H 3.333925 -2.811463 -5.371609
  H 6.835289 -0.726174 -1.180422
 32
 -0.855220
  C 1.006751 -0.246331 0.605021
  C 2.468885 -0.110189 0.488665
  C 3.247637 0.585045 1.540833
  C 2.460434 1.208188 2.689888
  C 3.393075 1.964541 3.629504
  C 3.076539 -0.608580 -0.659715
  C 4.448638 -0.597383 -0.904832
  C 5.132147 -1.037181 -2.034047
  C 4.626393 -1.474613 -3.363651
  C 3.140868 -1.428693 -3.702058
  C 2.937445 -1.751756 -5.180140
  O 6.450491 -1.071835 -2.008273
  H 0.675797 -0.285060 1.638331
  H 0.641827 -1.115315 0.062524
  H 0.534028 0.630216 0.154884
  H 3.846347 1.372445 1.071022
  H 3.968314 -0.125560 1.963162
  H 1.945471 0.435998 3.262007
  H 1.713050 1.899513 2.301211
  H 4.140619 1.299052 4.055107
  H 2.829880 2.404035 4.449364
  H 3.906144 2.769329 3.105953
  H 2.423345 -1.049348 -1.392209
  H 5.080120 -0.228264 -0.106652
  H 5.000751 -2.491923 -3.521149
  H 5.170094 -0.866067 -4.096203
  H 2.738421 -0.434520 -3.504211
  H 2.594291 -2.167261 -3.116040
  H 3.443849 -1.024809 -5.811392
  H 1.879017 -1.735027 -5.429117
  H 3.324429 -2.739187 -5.419147
  H 6.850912 -0.795254 -1.162646
 32
 -0.977112
  C 1.033412 -0.320309 0.662013
  C 2.480969 -0.117095 0.486286
  C 3.259313 0.609457 1.519051
  C 2.469489 1.226378 2.670135
  C 3.388304 2.037569 3.577658
  C 3.080861 -0.598390 -0.672206
  C 4.452714 -0.578166 -0.921914
  C 5.140583 -1.065908 -2.029280
  C 4.638765 -1.510670 -3.356933
  C 3.159407 -1.424136 -3.710198
  C 2.962982 -1.728105 -5.193829
  O 6.455155 -1.153647 -1.976161
  H 0.775713 -0.511091 1.700056
  H 0.656967 -1.119557 0.029374
  H 0.507887 0.595603 0.378206
  H 3.833718 1.405119 1.032780
  H 3.999910 -0.079383 1.941818
  H 1.993091 0.447361 3.267116
  H 1.688139 1.880766 2.281025
  H 4.167204 1.410328 4.004575
  H 2.822865 2.472960 4.396832
  H 3.861406 2.848373 3.029161
  H 2.428627 -1.057490 -1.396230
  H 5.082576 -0.198942 -0.126414
  H 4.986603 -2.540460 -3.498975
  H 5.206078 -0.926452 -4.090674
  H 2.779788 -0.422383 -3.505838
  H 2.588252 -2.154669 -3.136965
  H 3.491380 -1.006578 -5.812962
  H 1.907924 -1.685055 -5.452428
  H 3.330155 -2.722066 -5.438819
  H 6.850933 -0.859072 -1.133641
 32
 -0.096215
  C 1.059516 -0.317927 0.673315
  C 2.481721 -0.016163 0.441527
  C 3.269672 0.676398 1.490838
  C 2.501639 1.188265 2.707022
  C 3.423511 1.982782 3.628025
  C 3.062748 -0.431006 -0.750236
  C 4.430573 -0.375517 -1.017498
  C 5.132154 -0.982504 -2.055659
  C 4.652104 -1.533831 -3.350994
  C 3.179041 -1.467035 -3.735531
  C 3.002858 -1.898243 -5.190127
  O 6.438826 -1.116376 -1.945542
  H 0.859486 -0.544830 1.716084
  H 0.709957 -1.128336 0.038859
  H 0.461844 0.564235 0.428672
  H 3.789538 1.525440 1.035439
  H 4.053445 -0.003244 1.842696
  H 2.082410 0.354841 3.273585
  H 1.678911 1.830797 2.388795
  H 4.242925 1.364075 3.987474
  H 2.873882 2.345350 4.492421
  H 3.842669 2.843740 3.112585
  H 2.410529 -0.896066 -1.468411
  H 5.052905 0.083586 -0.258556
  H 4.999172 -2.571421 -3.408281
  H 5.233834 -1.007322 -4.117494
  H 2.804827 -0.448994 -3.625126
  H 2.592927 -2.140157 -3.110297
  H 3.548063 -1.238772 -5.861242
  H 1.952297 -1.868798 -5.469131
  H 3.363751 -2.912918 -5.340812
  H 6.821254 -0.743542 -1.129235
 32
 1.864365
  C 1.075377 -0.316324 0.675726
  C 2.466349 0.073833 0.390276
  C 3.279868 0.726619 1.448006
  C 2.555462 1.138269 2.727563
  C 3.498971 1.901218 3.652912
  C 3.014939 -0.260042 -0.841232
  C 4.372665 -0.135698 -1.139574
  C 5.107535 -0.853491 -2.078635
  C 4.666900 -1.546197 -3.317541
  C 3.203878 -1.519944 -3.743730
  C 3.060146 -2.106241 -5.145487
  O 6.405484 -0.985103 -1.896331
  H 0.923414 -0.547514 1.724409
  H 0.759563 -1.153581 0.058124
  H 0.412149 0.519947 0.435805
  H 3.747176 1.622025 1.024558
  H 4.100502 0.055804 1.723440
  H 2.187675 0.260118 3.260549
  H 1.702131 1.774861 2.488700
  H 4.350866 1.285904 3.933976
  H 2.981960 2.192836 4.563573
  H 3.869815 2.804803 3.173984
  H 2.363331 -0.741357 -1.550860
  H 4.970951 0.424309 -0.431664
  H 5.014647 -2.582591 -3.257363
  H 5.268577 -1.099012 -4.118697
  H 2.831124 -0.495714 -3.752542
  H 2.600427 -2.119591 -3.062157
  H 3.625822 -1.526462 -5.870900
  H 2.017226 -2.103115 -5.452088
  H 3.417733 -3.132192 -5.175272
  H 6.758118 -0.518890 -1.114733
 32
 4.234734
  C 1.075525 -0.305194 0.671048
  C 2.448685 0.119970 0.349123
  C 3.294102 0.726311 1.411833
  C 2.611783 1.067211 2.735033
  C 3.586792 1.779691 3.668298
  C 2.960211 -0.143615 -0.914009
  C 4.308813 0.043933 -1.240641
  C 5.083597 -0.738679 -2.091764
  C 4.685489 -1.546865 -3.273084
  C 3.241190 -1.533525 -3.758596
  C 3.139116 -2.235781 -5.109576
  O 6.372826 -0.846899 -1.847181
  H 0.963872 -0.579263 1.713855
  H 0.752325 -1.124950 0.033138
  H 0.389737 0.524540 0.479088
  H 3.735676 1.648965 1.019249
  H 4.129148 0.052146 1.627658
  H 2.261401 0.162121 3.233469
  H 1.752179 1.715354 2.559716
  H 4.450758 1.153891 3.880407
  H 3.103467 2.013501 4.613537
  H 3.936046 2.711988 3.230346
  H 2.307575 -0.628060 -1.619781
  H 4.880791 0.667193 -0.561705
  H 5.006287 -2.579010 -3.097442
  H 5.328812 -1.190616 -4.086868
  H 2.888358 -0.507258 -3.867303
  H 2.600767 -2.061876 -3.053193
  H 3.746629 -1.732617 -5.857935
  H 2.109802 -2.238206 -5.458585
  H 3.473611 -3.267816 -5.035695
  H 6.700243 -0.314517 -1.097973
 32
 4.287538
  C 1.125824 -0.344976 0.670586
  C 2.500129 0.080907 0.349893
  C 3.344075 0.700693 1.406104
  C 2.659917 1.064551 2.722608
  C 3.634693 1.792106 3.644893
  C 3.012595 -0.197461 -0.908750
  C 4.361368 -0.018565 -1.232798
  C 5.130171 -0.808354 -2.083245
  C 4.733024 -1.582048 -3.287565
  C 3.287929 -1.553491 -3.770879
  C 3.182272 -2.219881 -5.140020
  O 6.412286 -0.943695 -1.820362
  H 0.991355 -0.549034 1.726235
  H 0.833388 -1.213228 0.083963
  H 0.431123 0.455375 0.401296
  H 3.791578 1.614863 1.001029
  H 4.174851 0.025506 1.634440
  H 2.308073 0.168241 3.235614
  H 1.801305 1.710645 2.534806
  H 4.494131 1.166074 3.875033
  H 3.147900 2.049394 4.582458
  H 3.991565 2.712659 3.188199
  H 2.361294 -0.691441 -1.609644
  H 4.936156 0.604597 -0.557119
  H 5.056935 -2.618195 -3.146384
  H 5.374777 -1.197485 -4.090598
  H 2.936953 -0.524213 -3.851578
  H 2.647188 -2.098864 -3.078284
  H 3.787881 -1.696845 -5.876484
  H 2.152055 -2.213266 -5.486144
  H 3.517030 -3.253348 -5.094845
  H 6.734106 -0.424850 -1.059182
 32
 3.890745
  C 1.137789 -0.360755 0.675994
  C 2.516963 0.058232 0.366713
  C 3.349401 0.698783 1.417916
  C 2.650083 1.087237 2.719137
  C 3.612178 1.836130 3.637212
  C 3.036282 -0.239673 -0.884900
  C 4.384592 -0.070071 -1.207160
  C 5.141197 -0.848372 -2.079824
  C 4.732279 -1.591155 -3.299333
  C 3.283066 -1.550568 -3.769258
  C 3.166637 -2.177523 -5.156067
  O 6.424058 -0.996460 -1.826741
  H 0.987643 -0.544854 1.733601
  H 0.852534 -1.239349 0.101357
  H 0.448367 0.435896 0.382821
  H 3.801827 1.604479 0.999878
  H 4.177816 0.028069 1.667705
  H 2.294869 0.200176 3.245651
  H 1.791788 1.726518 2.508255
  H 4.469749 1.216957 3.890924
  H 3.113571 2.112701 4.562914
  H 3.972753 2.747455 3.165358
  H 2.386320 -0.740033 -1.582170
  H 4.967901 0.535858 -0.523571
  H 5.058203 -2.630219 -3.187324
  H 5.366887 -1.186399 -4.098180
  H 2.930558 -0.519919 -3.817556
  H 2.648732 -2.116698 -3.087513
  H 3.764562 -1.632114 -5.882522
  H 2.133315 -2.163280 -5.492677
  H 3.503822 -3.211302 -5.143696
  H 6.751937 -0.489935 -1.059984
 32
 3.409446
  C 1.110168 -0.385100 0.707616
  C 2.489322 0.039615 0.404102
  C 3.308182 0.718850 1.440029
  C 2.594855 1.136203 2.724708
  C 3.540907 1.922624 3.627759
  C 3.009131 -0.273425 -0.843752
  C 4.352190 -0.087877 -1.179832
  C 5.099482 -0.856310 -2.071581
  C 4.681879 -1.565105 -3.307276
  C 3.228322 -1.514411 -3.762817
  C 3.102975 -2.089022 -5.171373
  O 6.381618 -1.019850 -1.822697
  H 0.941046 -0.522538 1.769397
  H 0.848488 -1.293142 0.169014
  H 0.416135 0.387240 0.364608
  H 3.755073 1.616443 0.999256
  H 4.141484 0.063531 1.713992
  H 2.246225 0.259893 3.273278
  H 1.730488 1.758396 2.488587
  H 4.402505 1.320461 3.907486
  H 3.031108 2.222363 4.540012
  H 3.896010 2.823210 3.131618
  H 2.364247 -0.797802 -1.527712
  H 4.942318 0.505163 -0.491089
  H 5.012805 -2.605645 -3.228682
  H 5.308328 -1.135173 -4.099498
  H 2.870515 -0.484520 -3.768826
  H 2.602729 -2.109691 -3.097942
  H 3.690791 -1.512615 -5.882023
  H 2.066453 -2.068582 -5.497799
  H 3.446341 -3.120437 -5.201325
  H 6.713493 -0.520677 -1.052771
