 26
 0.000000
  C 0.973298 0.140460 0.394094
  C 2.449450 0.134767 0.395628
  C 3.233709 0.603974 1.563297
  C 2.455189 1.095133 2.778653
  H 3.133402 1.408775 3.560898
  C 3.072475 -0.328484 -0.757618
  C 4.450471 -0.409285 -0.968909
  C 5.121057 -0.860300 -2.099480
  C 4.621188 -1.382841 -3.400372
  C 3.131635 -1.502832 -3.690208
  H 2.981847 -1.901758 -4.684701
  O 6.443946 -0.854723 -2.095500
  H 0.541154 0.519637 1.312835
  H 0.589791 -0.868271 0.232252
  H 0.607689 0.752665 -0.431388
  H 3.892439 1.413238 1.228902
  H 3.889162 -0.213370 1.884289
  H 1.818787 0.303735 3.170888
  H 1.822326 1.939875 2.512049
  H 2.417603 -0.646653 -1.550343
  H 5.074664 -0.079880 -0.146945
  H 5.080878 -2.369582 -3.526880
  H 5.076753 -0.754564 -4.174160
  H 2.651541 -0.527854 -3.642252
  H 2.655741 -2.176938 -2.981348
  H 6.827844 -0.520708 -1.263142
 26
 0.006231
  C 0.978143 -0.072020 0.502332
  C 2.440161 0.092441 0.410139
  C 3.224365 0.737057 1.489681
  C 2.451631 1.237593 2.701990
  H 3.141717 1.702697 3.400859
  C 3.050312 -0.388464 -0.745541
  C 4.424021 -0.509151 -0.934089
  C 5.112592 -0.974783 -2.051258
  C 4.625268 -1.353109 -3.406743
  C 3.146332 -1.294893 -3.751684
  H 3.029061 -1.576371 -4.795760
  O 6.423866 -1.107674 -1.982898
  H 0.576135 0.208767 1.468308
  H 0.723629 -1.110842 0.287497
  H 0.485694 0.521724 -0.268456
  H 3.771873 1.579150 1.052047
  H 3.989186 0.032054 1.833009
  H 1.954828 0.423159 3.221786
  H 1.712380 1.982517 2.422117
  H 2.388703 -0.726340 -1.524058
  H 5.052551 -0.249549 -0.090302
  H 5.001626 -2.364866 -3.594487
  H 5.181003 -0.716423 -4.105014
  H 2.748531 -0.291200 -3.635302
  H 2.570150 -2.000248 -3.160390
  H 6.814664 -0.867634 -1.124473
 26
 1.726679
  C 1.017970 -0.276516 0.611998
  C 2.433141 0.083823 0.414503
  C 3.183658 0.895822 1.395251
  C 2.446972 1.310294 2.661386
  H 3.103935 1.919731 3.276723
  C 3.039782 -0.396609 -0.746175
  C 4.403187 -0.598778 -0.910154
  C 5.086496 -1.099704 -2.013649
  C 4.622440 -1.342615 -3.409093
  C 3.175342 -1.088225 -3.799885
  H 3.072014 -1.273389 -4.866504
  O 6.367517 -1.397267 -1.893732
  H 0.644480 -0.004251 1.589580
  H 0.923615 -1.353558 0.467597
  H 0.390317 0.189215 -0.148829
  H 3.531082 1.797579 0.877828
  H 4.095437 0.359599 1.678207
  H 2.150529 0.445855 3.248427
  H 1.565853 1.902625 2.433614
  H 2.371412 -0.714462 -1.530280
  H 5.021630 -0.426383 -0.036452
  H 4.889713 -2.377552 -3.650583
  H 5.276695 -0.730143 -4.041609
  H 2.887748 -0.058579 -3.613903
  H 2.498731 -1.766014 -3.289642
  H 6.743546 -1.238130 -1.007578
 26
 4.274932
  C 1.064648 -0.430712 0.721847
  C 2.410862 0.079989 0.405669
  C 3.132969 1.023920 1.295450
  C 2.476791 1.374427 2.624683
  H 3.103563 2.082916 3.159268
  C 3.009803 -0.389808 -0.769807
  C 4.358695 -0.681209 -0.901769
  C 5.055552 -1.179920 -1.995091
  C 4.641499 -1.308683 -3.418389
  C 3.236708 -0.916029 -3.847151
  H 3.156377 -1.051731 -4.923144
  O 6.297693 -1.605991 -1.830159
  H 0.727971 -0.134007 1.708272
  H 1.093836 -1.519248 0.658986
  H 0.331790 -0.097007 -0.015710
  H 3.286246 1.947275 0.722272
  H 4.143463 0.643820 1.480701
  H 2.358671 0.493570 3.251369
  H 1.505689 1.839579 2.480807
  H 2.338033 -0.635440 -1.581157
  H 4.944518 -0.608499 0.009362
  H 4.837666 -2.345488 -3.711539
  H 5.368288 -0.714239 -3.984636
  H 3.030126 0.127734 -3.627076
  H 2.486542 -1.552436 -3.387161
  H 6.635438 -1.532676 -0.919880
 26
 8.652095
  C 1.142049 -0.560997 0.819463
  C 2.388818 0.100172 0.397742
  C 3.078270 1.116415 1.219850
  C 2.514924 1.391591 2.607206
  H 3.098466 2.175368 3.084090
  C 2.971221 -0.332629 -0.804525
  C 4.290464 -0.735103 -0.901690
  C 5.002177 -1.242567 -1.980743
  C 4.642951 -1.294376 -3.426344
  C 3.287487 -0.786182 -3.889802
  H 3.236838 -0.880631 -4.971485
  O 6.199215 -1.770708 -1.775727
  H 0.853654 -0.296051 1.829061
  H 1.310530 -1.637384 0.752064
  H 0.316410 -0.331367 0.146149
  H 3.066569 2.046865 0.640467
  H 4.140393 0.856895 1.295455
  H 2.566196 0.507043 3.236142
  H 1.483948 1.732573 2.558860
  H 2.301954 -0.474426 -1.636970
  H 4.834897 -0.739308 0.036092
  H 4.772184 -2.333273 -3.745646
  H 5.433257 -0.738929 -3.944688
  H 3.150085 0.262128 -3.641493
  H 2.477595 -1.380372 -3.476924
  H 6.500236 -1.744181 -0.848504
 26
 13.300697
  C 1.230222 -0.661234 0.887705
  C 2.401809 0.098429 0.413928
  C 3.048032 1.166418 1.195822
  C 2.522584 1.418100 2.599259
  H 3.052379 2.261995 3.036471
  C 2.974396 -0.289784 -0.818321
  C 4.255945 -0.784850 -0.906940
  C 4.967305 -1.279871 -1.992173
  C 4.622139 -1.284874 -3.443794
  C 3.295222 -0.702679 -3.907062
  H 3.238278 -0.794393 -4.990937
  O 6.129789 -1.875764 -1.783573
  H 0.973665 -0.430995 1.911325
  H 1.479501 -1.721439 0.791608
  H 0.355437 -0.490093 0.258621
  H 2.945816 2.085102 0.608066
  H 4.126904 0.982943 1.225203
  H 2.682015 0.553343 3.240379
  H 1.463703 1.662859 2.591058
  H 2.327569 -0.264915 -1.682743
  H 4.772300 -0.873799 0.045604
  H 4.704146 -2.321124 -3.782776
  H 5.442666 -0.758753 -3.944668
  H 3.216790 0.350817 -3.660126
  H 2.456072 -1.250432 -3.492951
  H 6.414134 -1.885611 -0.856818
 26
 19.884804
  C 1.386866 -0.782516 0.977546
  C 2.436982 0.093001 0.447243
  C 2.989978 1.254312 1.164415
  C 2.494331 1.495081 2.583702
  H 2.944482 2.405114 2.973934
  C 2.999016 -0.268462 -0.819191
  C 4.222037 -0.880496 -0.910656
  C 4.916543 -1.363048 -2.018882
  C 4.592657 -1.274884 -3.470579
  C 3.307294 -0.598188 -3.918468
  H 3.257811 -0.639000 -5.003620
  O 6.044114 -2.034933 -1.829832
  H 1.170086 -0.589030 2.019067
  H 1.725981 -1.809407 0.837981
  H 0.460343 -0.685873 0.407398
  H 2.767401 2.136932 0.552319
  H 4.085657 1.188211 1.151284
  H 2.772918 0.675584 3.242430
  H 1.414575 1.621742 2.612263
  H 2.377257 -0.112359 -1.687467
  H 4.717660 -1.059015 0.038961
  H 4.616204 -2.299941 -3.855970
  H 5.448009 -0.776295 -3.940250
  H 3.287990 0.448145 -3.627724
  H 2.432699 -1.114284 -3.533727
  H 6.315926 -2.105683 -0.899527
 26
 26.851014
  C 1.580041 -0.899036 1.056345
  C 2.481436 0.091367 0.466732
  C 2.912161 1.326636 1.136169
  C 2.433386 1.540089 2.565086
  H 2.788826 2.501874 2.924370
  C 3.070574 -0.234243 -0.820502
  C 4.210939 -0.979490 -0.917896
  C 4.878497 -1.451547 -2.054906
  C 4.551821 -1.302726 -3.501182
  C 3.301210 -0.550074 -3.925011
  H 3.244627 -0.563079 -5.010594
  O 5.976824 -2.181889 -1.895539
  H 1.381874 -0.717690 2.106534
  H 1.982422 -1.901245 0.899559
  H 0.625479 -0.890879 0.519998
  H 2.578267 2.171294 0.518171
  H 4.007031 1.379407 1.088176
  H 2.821794 0.772207 3.229290
  H 1.348724 1.544298 2.624292
  H 2.516384 0.070467 -1.693985
  H 4.685896 -1.239109 0.023637
  H 4.522418 -2.317563 -3.913762
  H 5.427764 -0.834518 -3.964788
  H 3.338752 0.489901 -3.612927
  H 2.402816 -1.028280 -3.544988
  H 6.251463 -2.292114 -0.967831
 26
 17.408375
  C 1.876300 -0.971388 1.144006
  C 2.593649 0.126695 0.483381
  C 2.803030 1.448913 1.104099
  C 2.293113 1.623070 2.528131
  H 2.489499 2.639847 2.857467
  C 3.202369 -0.151364 -0.776070
  C 4.223730 -1.068047 -0.915682
  C 4.818893 -1.536519 -2.082967
  C 4.469362 -1.306711 -3.514612
  C 3.279787 -0.436332 -3.887689
  H 3.196936 -0.417518 -4.971619
  O 5.861827 -2.350325 -1.990082
  H 1.706271 -0.805024 2.202198
  H 2.355607 -1.933049 0.960330
  H 0.903754 -1.065017 0.650055
  H 2.333097 2.211181 0.466238
  H 3.872556 1.675678 1.054625
  H 2.799313 0.948823 3.214055
  H 1.221415 1.454514 2.591068
  H 2.769189 0.318040 -1.644119
  H 4.662547 -1.425203 0.009036
  H 4.340742 -2.303144 -3.951438
  H 5.370690 -0.904080 -3.989538
  H 3.416822 0.589330 -3.558495
  H 2.351836 -0.841534 -3.493574
  H 6.153107 -2.523469 -1.077624
 26
 7.941220
  C 2.179740 -1.033937 1.291481
  C 2.736743 0.090158 0.527883
  C 2.697262 1.485933 1.027612
  C 2.131370 1.693758 2.425481
  H 2.143183 2.754595 2.664647
  C 3.339466 -0.165585 -0.715463
  C 4.263102 -1.181588 -0.935191
  C 4.797169 -1.607728 -2.143011
  C 4.407745 -1.278627 -3.543299
  C 3.259554 -0.321442 -3.821976
  H 3.116951 -0.264186 -4.898710
  O 5.791650 -2.482337 -2.136312
  H 2.088267 -0.835628 2.352560
  H 2.711824 -1.962473 1.093960
  H 1.171444 -1.210823 0.903287
  H 2.118773 2.093133 0.319722
  H 3.713420 1.889179 0.974526
  H 2.728540 1.180625 3.175308
  H 1.103939 1.348157 2.493260
  H 3.051015 0.472559 -1.537962
  H 4.670080 -1.649631 -0.046556
  H 4.196183 -2.243232 -4.018830
  H 5.312275 -0.912507 -4.039817
  H 3.482247 0.683871 -3.476318
  H 2.330982 -0.674657 -3.382299
  H 6.099034 -2.733995 -1.247945
 26
 6.274285
  C 2.365775 -1.026939 1.182961
  C 2.873473 0.179121 0.504011
  C 2.634869 1.546735 1.016918
  C 1.983756 1.646877 2.387100
  H 1.839252 2.685522 2.645050
  C 3.568895 0.004176 -0.688193
  C 4.338919 -1.131100 -0.931512
  C 4.794721 -1.632270 -2.133358
  C 4.317484 -1.332036 -3.510267
  C 3.232209 -0.285489 -3.715025
  H 2.939281 -0.291387 -4.760338
  O 5.683906 -2.612619 -2.145000
  H 2.271655 -0.919244 2.260235
  H 2.995651 -1.872627 0.886810
  H 1.381710 -1.256180 0.772638
  H 1.994778 2.065507 0.284752
  H 3.578054 2.096353 1.005888
  H 2.610681 1.201058 3.154487
  H 1.009712 1.156955 2.397515
  H 3.501456 0.781557 -1.427687
  H 4.771761 -1.594358 -0.048999
  H 3.985467 -2.285727 -3.924068
  H 5.209783 -1.061225 -4.105097
  H 3.589075 0.712205 -3.481533
  H 2.352238 -0.507246 -3.122533
  H 6.027765 -2.860745 -1.266057
