 13
 0.000000
  H 1.407371 0.135305 0.388727
  C 2.480610 0.096165 0.290752
  H 3.066339 0.434988 1.132091
  C 3.073297 -0.360532 -0.845021
  C 4.477030 -0.411546 -0.974884
  C 5.164821 -0.860873 -2.094088
  C 4.597122 -1.353912 -3.324512
  H 3.517076 -1.366644 -3.360141
  H 6.245248 -0.840036 -2.040325
  H 2.454005 -0.691583 -1.666272
  H 5.061229 -0.071313 -0.129309
  H 4.999855 -2.351506 -3.534306
  H 5.002052 -0.779132 -4.165322
 13
 4.446961
  H 1.457111 0.159301 0.447965
  C 2.523817 0.105933 0.315053
  H 3.139031 0.437153 1.138143
  C 3.064896 -0.357411 -0.837223
  C 4.444080 -0.432021 -1.026104
  C 5.175824 -0.867353 -2.110360
  C 4.630541 -1.362979 -3.347155
  H 3.549421 -1.378705 -3.389919
  H 6.254086 -0.832967 -2.022668
  H 2.388443 -0.674321 -1.623124
  H 4.826016 -0.065440 -0.114684
  H 5.040373 -2.358404 -3.552482
  H 5.042341 -0.786671 -4.183305
 13
 14.716726
  H 1.487875 0.180368 0.499979
  C 2.554447 0.117522 0.343660
  H 3.180689 0.443204 1.153117
  C 3.060504 -0.352511 -0.824916
  C 4.436904 -0.446410 -1.061654
  C 5.195193 -0.870122 -2.117124
  C 4.658247 -1.372642 -3.371299
  H 3.560326 -1.390051 -3.417741
  H 6.268377 -0.826479 -2.006612
  H 2.324859 -0.659640 -1.586319
  H 4.637785 -0.060742 -0.102489
  H 5.076156 -2.375670 -3.576651
  H 5.077740 -0.790602 -4.212593
 13
 28.255120
  H 1.505084 0.191064 0.526443
  C 2.564933 0.127424 0.366876
  H 3.196555 0.460014 1.187722
  C 3.062030 -0.349281 -0.812021
  C 4.426584 -0.456567 -1.086719
  C 5.199825 -0.881251 -2.142516
  C 4.675157 -1.376416 -3.383416
  H 3.607002 -1.392077 -3.429900
  H 6.276951 -0.837058 -2.026185
  H 2.313705 -0.647227 -1.542609
  H 4.484383 -0.062036 -0.109725
  H 5.087284 -2.366330 -3.585249
  H 5.091001 -0.801625 -4.212429
 13
 42.400050
  H 1.511024 0.189176 0.536600
  C 2.568182 0.141648 0.383741
  H 3.180482 0.513935 1.200739
  C 3.068693 -0.363919 -0.772016
  C 4.449645 -0.461166 -1.103893
  C 5.211050 -0.893236 -2.138507
  C 4.686830 -1.364806 -3.406038
  H 3.604789 -1.347111 -3.459990
  H 6.292256 -0.880467 -2.015258
  H 2.303942 -0.704184 -1.476076
  H 4.385183 -0.042571 -0.132801
  H 5.075196 -2.368993 -3.595105
  H 5.118624 -0.794341 -4.233500
 13
 48.457188
  H 1.465784 0.181856 0.549664
  C 2.547945 0.178340 0.419624
  H 3.097104 0.633345 1.220988
  C 3.090464 -0.379863 -0.668851
  C 4.466411 -0.475998 -1.145390
  C 5.195723 -0.920561 -2.140321
  C 4.712628 -1.351842 -3.470644
  H 3.631493 -1.264671 -3.547255
  H 6.271934 -0.975002 -2.013116
  H 2.362406 -0.839673 -1.339953
  H 4.357160 0.000894 -0.157363
  H 5.031439 -2.379239 -3.627683
  H 5.177601 -0.766137 -4.255443
 13
 54.899881
  H 1.463282 0.181806 0.564772
  C 2.534048 0.199394 0.445506
  H 3.070977 0.686094 1.253737
  C 3.092859 -0.369082 -0.624896
  C 4.457192 -0.487172 -1.159376
  C 5.185533 -0.928843 -2.145174
  C 4.717929 -1.353388 -3.491745
  H 3.636280 -1.262897 -3.586782
  H 6.262409 -0.990729 -2.018731
  H 2.396983 -0.861281 -1.299343
  H 4.296438 -0.014430 -0.175387
  H 5.033037 -2.385250 -3.652203
  H 5.203416 -0.752104 -4.253357
 13
 59.972503
  H 1.447717 0.192537 0.572309
  C 2.524506 0.223559 0.453226
  H 3.054030 0.753425 1.230820
  C 3.094441 -0.380252 -0.592778
  C 4.468355 -0.506105 -1.162910
  C 5.193051 -0.939586 -2.146533
  C 4.717335 -1.343001 -3.500256
  H 3.635114 -1.243653 -3.594416
  H 6.284298 -1.012540 -2.018027
  H 2.404929 -0.921698 -1.254828
  H 4.247853 -0.043364 -0.168805
  H 5.014539 -2.365455 -3.680215
  H 5.207305 -0.731750 -4.251838
 13
 64.232481
  H 1.440823 0.192206 0.562099
  C 2.510601 0.243442 0.451310
  H 3.026278 0.822505 1.205359
  C 3.102131 -0.392020 -0.566585
  C 4.489030 -0.520480 -1.153838
  C 5.203849 -0.948985 -2.147903
  C 4.710910 -1.327216 -3.505336
  H 3.633860 -1.216301 -3.589216
  H 6.274829 -1.032312 -2.028241
  H 2.430419 -0.973445 -1.214688
  H 4.208579 -0.071694 -0.145914
  H 4.997221 -2.360310 -3.706954
  H 5.199627 -0.709607 -4.249658
 13
 67.858961
  H 1.427067 0.182657 0.540186
  C 2.499037 0.260678 0.436902
  H 2.992924 0.896629 1.162478
  C 3.119735 -0.410173 -0.544800
  C 4.510109 -0.530395 -1.139867
  C 5.209149 -0.958909 -2.144682
  C 4.695068 -1.307295 -3.504165
  H 3.614157 -1.174551 -3.577671
  H 6.290419 -1.064464 -2.034798
  H 2.470928 -1.043143 -1.174637
  H 4.178026 -0.095445 -0.129863
  H 4.957415 -2.330894 -3.719524
  H 5.185624 -0.692550 -4.239654
 13
 70.356229
  H 1.415189 0.177745 0.542987
  C 2.483199 0.283288 0.426444
  H 2.959455 0.974971 1.102214
  C 3.121020 -0.433968 -0.515248
  C 4.515026 -0.545298 -1.137764
  C 5.204989 -0.971717 -2.146883
  C 4.684198 -1.286086 -3.509796
  H 3.615863 -1.132033 -3.578080
  H 6.281521 -1.098915 -2.041973
  H 2.500328 -1.115989 -1.095562
  H 4.145819 -0.114298 -0.106468
  H 4.927748 -2.322957 -3.740647
  H 5.200436 -0.652395 -4.256239
 13
 71.557446
  H 1.410841 0.172946 0.550629
  C 2.469527 0.317656 0.400440
  H 2.931807 1.086681 1.004515
  C 3.129261 -0.471016 -0.480264
  C 4.494870 -0.569492 -1.143518
  C 5.195658 -0.990334 -2.146883
  C 4.681392 -1.247775 -3.528401
  H 3.613249 -1.058607 -3.605963
  H 6.270047 -1.144818 -2.030979
  H 2.533666 -1.249805 -0.966873
  H 4.114300 -0.132491 -0.080421
  H 4.896573 -2.286130 -3.780870
  H 5.213767 -0.626158 -4.238846
 13
 71.025803
  H 1.410935 0.191632 0.592758
  C 2.461334 0.350035 0.398838
  H 2.920875 1.180152 0.913940
  C 3.119293 -0.503283 -0.439158
  C 4.431262 -0.596681 -1.172801
  C 5.167381 -0.995576 -2.157698
  C 4.692543 -1.221161 -3.559104
  H 3.629672 -1.021406 -3.664823
  H 6.235040 -1.168714 -2.008274
  H 2.548986 -1.352509 -0.815677
  H 4.077561 -0.160088 -0.046710
  H 4.904389 -2.259640 -3.821443
  H 5.255502 -0.592291 -4.247696
 13
 67.104549
  H 1.421628 0.229890 0.616673
  C 2.458011 0.394893 0.364159
  H 2.913465 1.290212 0.757601
  C 3.123996 -0.555358 -0.377085
  C 4.358494 -0.644279 -1.196672
  C 5.134252 -1.008862 -2.160438
  C 4.702652 -1.188467 -3.584267
  H 3.642888 -0.979133 -3.712810
  H 6.197488 -1.182516 -1.981577
  H 2.583146 -1.468359 -0.625921
  H 4.061344 -0.224037 0.028086
  H 4.918120 -2.215508 -3.878256
  H 5.281354 -0.530791 -4.230572
