 25
 0.000000
  C 1.009951 0.119133 0.348363
  C 2.480877 0.130437 0.376126
  C 3.240671 0.602964 1.551541
  C 2.446223 1.088409 2.759486
  C 3.385948 1.536621 3.874684
  C 3.134426 -0.328726 -0.766770
  C 4.522599 -0.400527 -0.946428
  C 5.153436 -0.854736 -2.079108
  C 4.548446 -1.350500 -3.315294
  H 3.466558 -1.365564 -3.353190
  H 6.234893 -0.860797 -2.094600
  H 0.557446 0.486192 1.261635
  H 0.651609 -0.894892 0.163806
  H 0.651421 0.723327 -0.486546
  H 3.902411 1.414272 1.226839
  H 3.902554 -0.207261 1.878572
  H 1.808757 0.288417 3.140187
  H 1.808743 1.929318 2.480741
  H 4.021899 0.717325 4.202401
  H 2.815063 1.881561 4.733119
  H 4.021828 2.354867 3.544268
  H 2.503330 -0.656106 -1.581601
  H 5.144073 -0.071739 -0.127643
  H 4.931098 -2.357242 -3.501364
  H 4.931327 -0.751520 -4.145418
 25
 5.236048
  C 0.996568 0.121951 0.355500
  C 2.475410 0.128905 0.372377
  C 3.245017 0.602992 1.551438
  C 2.458696 1.091391 2.766636
  C 3.410126 1.536359 3.874104
  C 3.111596 -0.332501 -0.775855
  C 4.477015 -0.417962 -0.989769
  C 5.180259 -0.857314 -2.085610
  C 4.601620 -1.362314 -3.344952
  H 3.516582 -1.367132 -3.357301
  H 6.264033 -0.834027 -2.028003
  H 0.552358 0.490310 1.271770
  H 0.633687 -0.890959 0.163861
  H 0.633400 0.720266 -0.483902
  H 3.911046 1.414140 1.228362
  H 3.911132 -0.205969 1.879678
  H 1.823148 0.292583 3.152742
  H 1.823237 1.935263 2.492613
  H 4.046092 0.714848 4.196120
  H 2.848920 1.883530 4.738112
  H 4.046176 2.352208 3.538138
  H 2.448321 -0.652104 -1.570842
  H 4.879583 -0.052830 -0.080418
  H 4.980198 -2.371069 -3.538535
  H 4.980376 -0.767033 -4.181798
 25
 16.120814
  C 0.993204 0.131514 0.378366
  C 2.472967 0.130813 0.376011
  C 3.248844 0.605088 1.555869
  C 2.465329 1.093190 2.770851
  C 3.420855 1.536507 3.876172
  C 3.093844 -0.342383 -0.801209
  C 4.450661 -0.438482 -1.042825
  C 5.193842 -0.862445 -2.100261
  C 4.649647 -1.370391 -3.362981
  H 3.567590 -1.381819 -3.388301
  H 6.271865 -0.823920 -2.007551
  H 0.560424 0.502138 1.299676
  H 0.623634 -0.878005 0.189682
  H 0.623177 0.728928 -0.456848
  H 3.913503 1.419202 1.239544
  H 3.913489 -0.201573 1.890740
  H 1.830456 0.294222 3.158517
  H 1.831128 1.938792 2.498245
  H 4.056558 0.714013 4.196754
  H 2.861978 1.884098 4.741557
  H 4.057218 2.351746 3.539295
  H 2.389897 -0.651212 -1.567978
  H 4.666197 -0.054449 -0.087503
  H 5.037073 -2.373165 -3.547811
  H 5.035199 -0.773590 -4.190448
 25
 30.014235
  C 1.002579 0.137802 0.393852
  C 2.472615 0.132600 0.380198
  C 3.250418 0.601326 1.546425
  C 2.470106 1.090882 2.765312
  C 3.428369 1.531578 3.864536
  C 3.073499 -0.336393 -0.786851
  C 4.429919 -0.442637 -1.053695
  C 5.200679 -0.861175 -2.097482
  C 4.680453 -1.370620 -3.362740
  H 3.596160 -1.387424 -3.400519
  H 6.275474 -0.815423 -1.987651
  H 0.580147 0.509362 1.317100
  H 0.627996 -0.871985 0.208609
  H 0.627570 0.737466 -0.439175
  H 3.915964 1.417435 1.229271
  H 3.916013 -0.207371 1.881904
  H 1.836707 0.294368 3.154899
  H 1.837411 1.936267 2.495883
  H 4.063386 0.708566 4.182541
  H 2.873274 1.879585 4.731054
  H 4.064443 2.345674 3.525462
  H 2.331167 -0.644240 -1.551529
  H 4.488877 -0.052581 -0.083250
  H 5.077210 -2.375091 -3.542103
  H 5.074924 -0.768757 -4.188000
 25
 45.554567
  C 0.996561 0.142557 0.405335
  C 2.469542 0.135020 0.385581
  C 3.251892 0.602930 1.550141
  C 2.471764 1.092585 2.769975
  C 3.429892 1.532208 3.866820
  C 3.068849 -0.334992 -0.784521
  C 4.439578 -0.449697 -1.072222
  C 5.217749 -0.862560 -2.101667
  C 4.700932 -1.375486 -3.373581
  H 3.609203 -1.392642 -3.410956
  H 6.292424 -0.813774 -1.985476
  H 0.579598 0.514890 1.330909
  H 0.617962 -0.868912 0.221816
  H 0.617467 0.744771 -0.427446
  H 3.916582 1.419280 1.233635
  H 3.916771 -0.205592 1.885874
  H 1.838960 0.297021 3.159762
  H 1.839542 1.937492 2.501605
  H 4.063944 0.710239 4.183638
  H 2.876148 1.879791 4.732736
  H 4.065007 2.345035 3.527743
  H 2.312419 -0.633678 -1.526669
  H 4.364223 -0.060776 -0.104528
  H 5.101139 -2.384931 -3.553208
  H 5.098201 -0.770469 -4.202916
 25
 59.414398
  C 0.993944 0.145030 0.406173
  C 2.468355 0.139317 0.387518
  C 3.251787 0.607612 1.556373
  C 2.470413 1.093345 2.776305
  C 3.427998 1.533181 3.877216
  C 3.076781 -0.324887 -0.774083
  C 4.456263 -0.450671 -1.084127
  C 5.223808 -0.860805 -2.105874
  C 4.707242 -1.386421 -3.383889
  H 3.607912 -1.409313 -3.418449
  H 6.302897 -0.808246 -1.997488
  H 0.577810 0.517210 1.336818
  H 0.614849 -0.866615 0.224685
  H 0.613112 0.751073 -0.422910
  H 3.912441 1.425299 1.242959
  H 3.914579 -0.200262 1.890865
  H 1.837375 0.294335 3.164654
  H 1.836130 1.939483 2.508527
  H 4.062988 0.711863 4.193088
  H 2.872736 1.878106 4.743251
  H 4.061859 2.347325 3.540754
  H 2.321234 -0.622416 -1.519027
  H 4.283761 -0.065185 -0.126462
  H 5.111466 -2.396132 -3.558333
  H 5.099095 -0.779861 -4.215040
 25
 66.951527
  C 0.963071 0.157645 0.400609
  C 2.461435 0.163510 0.378152
  C 3.253604 0.634326 1.568172
  C 2.472674 1.086425 2.789392
  C 3.423733 1.513304 3.894054
  C 3.079236 -0.268728 -0.746807
  C 4.472583 -0.444113 -1.136166
  C 5.212540 -0.844691 -2.129852
  C 4.724574 -1.451028 -3.395507
  H 3.653395 -1.521508 -3.411811
  H 6.286781 -0.748659 -2.059982
  H 0.560552 0.516420 1.333855
  H 0.584566 -0.846611 0.226872
  H 0.574784 0.778979 -0.402171
  H 3.902283 1.469421 1.275666
  H 3.913309 -0.184792 1.886359
  H 1.848534 0.277454 3.160304
  H 1.835302 1.930217 2.535944
  H 4.065659 0.690319 4.194478
  H 2.865567 1.837768 4.765377
  H 4.050972 2.339302 3.570534
  H 2.361557 -0.558306 -1.526509
  H 4.254530 -0.035016 -0.140740
  H 5.152354 -2.433392 -3.539803
  H 5.073177 -0.835769 -4.215471
 25
 71.028683
  C 0.977398 0.183421 0.406941
  C 2.462867 0.200103 0.393259
  C 3.246173 0.654440 1.587649
  C 2.452100 1.073224 2.812905
  C 3.398683 1.494808 3.934865
  C 3.095489 -0.208393 -0.739354
  C 4.493012 -0.417876 -1.185954
  C 5.219578 -0.827572 -2.182826
  C 4.730528 -1.528409 -3.417561
  H 3.650434 -1.658566 -3.396699
  H 6.294636 -0.680514 -2.157194
  H 0.571491 0.525137 1.356410
  H 0.610359 -0.815502 0.218913
  H 0.589335 0.822181 -0.377556
  H 3.878769 1.503486 1.306251
  H 3.910260 -0.161796 1.893955
  H 1.835384 0.244437 3.168492
  H 1.800855 1.916875 2.571316
  H 4.053205 0.672881 4.223203
  H 2.831941 1.796464 4.812886
  H 4.017507 2.337327 3.628133
  H 2.402541 -0.479646 -1.552665
  H 4.236858 0.007139 -0.196458
  H 5.208963 -2.496598 -3.508383
  H 5.016251 -0.936099 -4.283088
 25
 75.215313
  C 0.977336 0.203503 0.395932
  C 2.465531 0.230340 0.392477
  C 3.247780 0.670259 1.602721
  C 2.450106 1.059217 2.835996
  C 3.387215 1.465073 3.958695
  C 3.098473 -0.151484 -0.741603
  C 4.502033 -0.375509 -1.226427
  C 5.215570 -0.801718 -2.219714
  C 4.727217 -1.591913 -3.392484
  H 3.660347 -1.773665 -3.333434
  H 6.285986 -0.605476 -2.234503
  H 0.562765 0.521998 1.349348
  H 0.615956 -0.804049 0.182308
  H 0.586776 0.858890 -0.383308
  H 3.870589 1.525778 1.335379
  H 3.920091 -0.142554 1.890381
  H 1.844147 0.221770 3.173828
  H 1.794123 1.897540 2.613157
  H 4.044619 0.649863 4.228530
  H 2.822239 1.742718 4.836925
  H 3.993340 2.312307 3.669976
  H 2.425189 -0.407161 -1.572312
  H 4.205568 0.072575 -0.257548
  H 5.251967 -2.538343 -3.440806
  H 4.957883 -1.042028 -4.295997
 25
 78.552690
  C 0.973563 0.225092 0.396858
  C 2.466129 0.259880 0.392221
  C 3.242339 0.678737 1.599658
  C 2.437370 1.040421 2.849711
  C 3.376543 1.433821 3.987051
  C 3.102414 -0.098679 -0.753363
  C 4.522342 -0.325433 -1.267431
  C 5.220624 -0.778427 -2.257687
  C 4.728245 -1.658390 -3.367667
  H 3.675744 -1.878346 -3.264607
  H 6.281247 -0.542661 -2.315711
  H 0.560750 0.520589 1.350478
  H 0.618223 -0.774650 0.164680
  H 0.579666 0.889208 -0.365240
  H 3.860032 1.544677 1.345456
  H 3.925056 -0.134762 1.868870
  H 1.836687 0.190413 3.172387
  H 1.772948 1.879147 2.643431
  H 4.046438 0.611357 4.243217
  H 2.804898 1.691988 4.878172
  H 3.981931 2.299443 3.712580
  H 2.440981 -0.344188 -1.589791
  H 4.177907 0.159039 -0.308214
  H 5.292743 -2.588369 -3.376576
  H 4.909527 -1.154192 -4.313814
 25
 81.240712
  C 0.980867 0.245995 0.384384
  C 2.473317 0.295487 0.381517
  C 3.244609 0.690733 1.595875
  C 2.432433 1.011927 2.859929
  C 3.365288 1.385798 4.005816
  C 3.112739 -0.031145 -0.777049
  C 4.537230 -0.255348 -1.303212
  C 5.213966 -0.745919 -2.291619
  C 4.718882 -1.731159 -3.306288
  H 3.684005 -1.994932 -3.137158
  H 6.262224 -0.464728 -2.416421
  H 0.559082 0.516296 1.357919
  H 0.634134 -0.755211 0.123808
  H 0.579771 0.926931 -0.363723
  H 3.852743 1.569393 1.364500
  H 3.938756 -0.120843 1.841980
  H 1.840863 0.146765 3.160986
  H 1.757838 1.848432 2.675758
  H 4.040169 0.570333 4.239279
  H 2.794561 1.612854 4.897659
  H 3.956498 2.258553 3.756331
  H 2.456891 -0.258316 -1.620700
  H 4.148354 0.262034 -0.369269
  H 5.329550 -2.627112 -3.271991
  H 4.831273 -1.295819 -4.289214
 25
 82.986360
  C 0.982147 0.269938 0.367373
  C 2.462047 0.336518 0.368685
  C 3.235566 0.704161 1.594415
  C 2.431966 0.976159 2.866953
  C 3.368278 1.326397 4.020027
  C 3.106045 0.043906 -0.806383
  C 4.534876 -0.182001 -1.342665
  C 5.197974 -0.712719 -2.319678
  C 4.717225 -1.809311 -3.224909
  H 3.708662 -2.113426 -2.986835
  H 6.224530 -0.388349 -2.512157
  H 0.563171 0.502538 1.330683
  H 0.648539 -0.727367 0.075762
  H 0.574605 0.965395 -0.359888
  H 3.828648 1.589617 1.388082
  H 3.938136 -0.099673 1.811082
  H 1.854101 0.098187 3.143526
  H 1.748354 1.806655 2.712391
  H 4.058376 0.506893 4.225758
  H 2.795838 1.520840 4.928424
  H 3.951739 2.219144 3.792435
  H 2.455475 -0.163535 -1.657866
  H 4.105334 0.376034 -0.422942
  H 5.385084 -2.669487 -3.143170
  H 4.762619 -1.453300 -4.250425
 25
 84.674630
  C 0.969524 0.284705 0.367672
  C 2.456423 0.350240 0.367798
  C 3.232761 0.701839 1.595597
  C 2.431772 0.950321 2.871050
  C 3.370257 1.286960 4.027626
  C 3.095999 0.077393 -0.815156
  C 4.516514 -0.160399 -1.373821
  C 5.184728 -0.705423 -2.337959
  C 4.733185 -1.862365 -3.179025
  H 3.742988 -2.197675 -2.903443
  H 6.186372 -0.348071 -2.566387
  H 0.549364 0.503909 1.344842
  H 0.634007 -0.709720 0.059593
  H 0.557749 0.996204 -0.350570
  H 3.827204 1.599220 1.402348
  H 3.943936 -0.104523 1.799959
  H 1.856131 0.061083 3.135282
  H 1.741411 1.784103 2.728874
  H 4.062522 0.470170 4.218493
  H 2.801549 1.464292 4.937543
  H 3.947779 2.183048 3.813302
  H 2.447566 -0.097827 -1.672942
  H 4.067725 0.421663 -0.445853
  H 5.437144 -2.685571 -3.072734
  H 4.740673 -1.553594 -4.219851
 25
 85.823922
  C 0.946253 0.298342 0.371486
  C 2.434515 0.361175 0.370689
  C 3.223215 0.697462 1.601012
  C 2.435141 0.929863 2.882348
  C 3.384633 1.251108 4.035612
  C 3.069124 0.097649 -0.821398
  C 4.477189 -0.168565 -1.397389
  C 5.171422 -0.711322 -2.343139
  C 4.768084 -1.911789 -3.144880
  H 3.787747 -2.277502 -2.854868
  H 6.152971 -0.321357 -2.584537
  H 0.528590 0.504275 1.349006
  H 0.609760 -0.691323 0.052280
  H 0.531045 1.022127 -0.339809
  H 3.820957 1.604234 1.414548
  H 3.938435 -0.115973 1.788772
  H 1.859750 0.035884 3.138660
  H 1.742997 1.767194 2.754599
  H 4.078422 0.431426 4.209725
  H 2.823830 1.417842 4.953513
  H 3.961372 2.149521 3.827248
  H 2.416360 -0.048043 -1.680788
  H 4.012863 0.472730 -0.470022
  H 5.501969 -2.701310 -3.017321
  H 4.760120 -1.631581 -4.194033
