 14
 0.000000
  H 1.434562 -0.075396 0.040048
  C 2.507610 -0.083659 0.023827
  C 3.217146 -0.595340 -0.980694
  C 4.655200 -0.607695 -1.004945
  C 5.376915 -1.122736 -2.016058
  C 6.815360 -1.132519 -2.035264
  C 7.531911 -1.642107 -3.035672
  H 8.604737 -1.654594 -3.060178
  H 3.007772 0.350759 0.876665
  H 2.704128 -1.028095 -1.830255
  H 5.160079 -0.173058 -0.151685
  H 4.873673 -1.557702 -2.869967
  H 7.320568 -0.697832 -1.181900
  H 7.035543 -2.077831 -3.891057
 14
 0.903035
  H 1.437885 -0.236810 0.053455
  C 2.512031 -0.165926 0.050329
  C 3.242777 -0.542565 -0.997356
  C 4.680411 -0.503190 -1.031930
  C 5.401945 -0.883572 -2.097259
  C 6.839266 -0.991503 -2.103856
  C 7.496003 -1.745292 -2.980787
  H 8.563259 -1.897417 -2.945068
  H 2.971116 0.229264 0.940894
  H 2.757696 -0.937570 -1.880413
  H 5.181389 -0.176144 -0.128663
  H 4.892007 -1.211790 -2.995778
  H 7.372723 -0.465623 -1.323223
  H 6.965702 -2.285057 -3.748864
 14
 3.566359
  H 1.449514 -0.379827 0.041797
  C 2.521711 -0.288153 0.053010
  C 3.264143 -0.546463 -1.020374
  C 4.702878 -0.486723 -1.042477
  C 5.423741 -0.720014 -2.146460
  C 6.863719 -0.896147 -2.152308
  C 7.421839 -1.861560 -2.871266
  H 8.466769 -2.115906 -2.844834
  H 2.966798 0.025964 0.983044
  H 2.791506 -0.860266 -1.942898
  H 5.200051 -0.289294 -0.101365
  H 4.913838 -0.920112 -3.081117
  H 7.453455 -0.263953 -1.501879
  H 6.805151 -2.495377 -3.490058
 14
 6.326794
  H 1.472833 -0.414676 0.016801
  C 2.547891 -0.367956 0.037272
  C 3.281523 -0.502725 -1.063009
  C 4.723250 -0.496463 -1.077492
  C 5.445135 -0.574736 -2.198437
  C 6.889333 -0.810521 -2.208025
  C 7.361377 -1.925544 -2.740490
  H 8.391342 -2.236290 -2.723094
  H 3.002466 -0.202533 1.000411
  H 2.800700 -0.667877 -2.019243
  H 5.219980 -0.473736 -0.115597
  H 4.945116 -0.598587 -3.159203
  H 7.534348 -0.086986 -1.727251
  H 6.677923 -2.631603 -3.188361
 14
 8.017712
  H 1.492197 -0.445997 0.001559
  C 2.568468 -0.455900 0.014591
  C 3.288240 -0.483483 -1.102206
  C 4.729967 -0.545951 -1.124073
  C 5.462893 -0.463230 -2.233897
  C 6.904410 -0.764199 -2.252454
  C 7.289516 -1.982979 -2.581945
  H 8.301160 -2.349933 -2.586970
  H 3.036371 -0.439801 0.985497
  H 2.796151 -0.497667 -2.066517
  H 5.219188 -0.709447 -0.172351
  H 4.986712 -0.290754 -3.191691
  H 7.604694 0.007823 -1.961792
  H 6.541468 -2.713039 -2.854034
 14
 6.875976
  H 1.498068 -0.344875 -0.034433
  C 2.561677 -0.503433 -0.033753
  C 3.288094 -0.429342 -1.144884
  C 4.712350 -0.653314 -1.187498
  C 5.480722 -0.402947 -2.247049
  C 6.907116 -0.759508 -2.289439
  C 7.265587 -2.023063 -2.424808
  H 8.277088 -2.387699 -2.447448
  H 3.012660 -0.726517 0.919522
  H 2.815319 -0.202599 -2.093200
  H 5.162183 -1.055479 -0.290731
  H 5.055121 0.025124 -3.148112
  H 7.634058 0.038730 -2.202232
  H 6.503069 -2.778598 -2.523968
 14
 5.377499
  H 1.476589 -0.390684 -0.119136
  C 2.534187 -0.593138 -0.115784
  C 3.297708 -0.374741 -1.182618
  C 4.712416 -0.670859 -1.243854
  C 5.538117 -0.298848 -2.249575
  C 6.932909 -0.749169 -2.323842
  C 7.205800 -2.038819 -2.227327
  H 8.233036 -2.539622 -2.334564
  H 2.947851 -0.979615 0.802891
  H 2.859485 0.019083 -2.095055
  H 5.118011 -1.244480 -0.417701
  H 5.170231 0.306966 -3.074657
  H 7.704517 -0.001643 -2.477723
  H 6.383595 -2.744379 -2.096945
 14
 8.231275
  H 1.503564 -0.671166 -0.262041
  C 2.578479 -0.710534 -0.219518
  C 3.340891 -0.387590 -1.262791
  C 4.763286 -0.557430 -1.277752
  C 5.597653 -0.189373 -2.265511
  C 6.925156 -0.775072 -2.329409
  C 7.054489 -2.063323 -2.033559
  H 7.987092 -2.598572 -1.979386
  H 3.010773 -1.026096 0.715993
  H 2.875928 -0.079212 -2.189871
  H 5.184186 -1.034924 -0.401907
  H 5.284040 0.499728 -3.038753
  H 7.769183 -0.166484 -2.624730
  H 6.169878 -2.675651 -1.967402
 14
 17.901665
  H 1.566245 -0.866321 -0.318711
  C 2.640123 -0.808617 -0.274917
  C 3.376128 -0.457061 -1.330793
  C 4.801812 -0.500142 -1.327562
  C 5.636622 -0.118997 -2.326469
  C 6.909576 -0.787616 -2.333384
  C 6.891344 -2.048556 -1.878478
  H 7.775092 -2.600973 -1.598228
  H 3.097020 -1.059130 0.668291
  H 2.883784 -0.225111 -2.266775
  H 5.244787 -0.798144 -0.385589
  H 5.339808 0.586388 -3.089862
  H 7.820994 -0.300084 -2.651344
  H 5.989833 -2.628742 -1.974730
 14
 31.747296
  H 1.652921 -1.061536 -0.354800
  C 2.718991 -0.923007 -0.305396
  C 3.440724 -0.568072 -1.371449
  C 4.859959 -0.474272 -1.353482
  C 5.665842 -0.060645 -2.395136
  C 6.878722 -0.781527 -2.366193
  C 6.704912 -1.982862 -1.744948
  H 7.514001 -2.518871 -1.264151
  H 3.182605 -1.093470 0.652481
  H 2.946594 -0.421291 -2.324582
  H 5.308744 -0.573261 -0.374901
  H 5.346516 0.637847 -3.153383
  H 7.842106 -0.420017 -2.696925
  H 5.839724 -2.579444 -1.967872
 14
 39.865332
  H 1.744264 -1.227419 -0.352203
  C 2.801523 -1.035861 -0.303312
  C 3.512896 -0.697358 -1.379121
  C 4.941098 -0.495371 -1.367983
  C 5.687714 -0.034548 -2.488650
  C 6.844281 -0.766722 -2.437193
  C 6.515670 -1.874055 -1.628862
  H 7.242143 -2.347009 -0.974125
  H 3.263395 -1.134558 0.665862
  H 3.025911 -0.624447 -2.344275
  H 5.385271 -0.414051 -0.386023
  H 5.322730 0.640986 -3.243699
  H 7.836550 -0.515680 -2.778986
  H 5.712162 -2.525676 -1.918203
 14
 27.684974
  H 1.824228 -1.279547 -0.325484
  C 2.886841 -1.101913 -0.285489
  C 3.597351 -0.832228 -1.368585
  C 5.054451 -0.570166 -1.365935
  C 5.720358 -0.018378 -2.560641
  C 6.828285 -0.769300 -2.498592
  C 6.303521 -1.763718 -1.562297
  H 6.936587 -2.189014 -0.788941
  H 3.346084 -1.149864 0.694457
  H 3.127374 -0.799593 -2.344126
  H 5.451161 -0.276284 -0.394802
  H 5.305060 0.623527 -3.326928
  H 7.844229 -0.601836 -2.815249
  H 5.599797 -2.493549 -1.951706
 14
 12.224033
  H 1.883547 -1.369304 -0.316252
  C 2.931241 -1.128108 -0.269186
  C 3.649219 -0.904185 -1.352561
  C 5.094559 -0.556663 -1.344756
  C 5.737512 0.018594 -2.571479
  C 6.775633 -0.821336 -2.561172
  C 6.193516 -1.715584 -1.515196
  H 6.803092 -2.069806 -0.686694
  H 3.361731 -1.060558 0.716242
  H 3.204160 -0.977515 -2.337074
  H 5.412895 -0.080490 -0.415236
  H 5.346134 0.706787 -3.295450
  H 7.774035 -0.767688 -2.955106
  H 5.605855 -2.538095 -1.924067
 14
 10.540776
  H 1.994958 -1.574541 -0.305046
  C 2.941739 -1.086990 -0.239723
  C 3.724483 -0.935598 -1.290535
  C 5.148024 -0.489553 -1.292561
  C 5.761465 0.043065 -2.596266
  C 6.633787 -0.958820 -2.675692
  C 6.107878 -1.677418 -1.472037
  H 6.835729 -1.912171 -0.667170
  H 3.235449 -0.743320 0.739407
  H 3.369811 -1.218434 -2.273173
  H 5.441040 0.074253 -0.406817
  H 5.385554 0.784649 -3.270567
  H 7.557799 -1.092877 -3.187078
  H 5.539596 -2.564647 -1.731624
 14
 3.290717
  H 1.875689 -1.341896 -0.370738
  C 2.892209 -0.995208 -0.289721
  C 3.731913 -1.040759 -1.307852
  C 5.150381 -0.594710 -1.243484
  C 5.714414 0.026916 -2.501415
  C 6.610402 -0.933678 -2.699156
  C 6.209174 -1.719569 -1.484032
  H 6.964867 -1.804130 -0.704122
  H 3.187105 -0.603084 0.671543
  H 3.414338 -1.437648 -2.264418
  H 5.332678 -0.018463 -0.334538
  H 5.442333 0.927209 -3.021693
  H 7.369988 -1.115404 -3.438363
  H 5.781819 -2.701977 -1.680893
