 23
 0.000000
  C 0.970939 0.177295 0.494191
  C 2.429282 0.124197 0.360792
  H 3.053691 0.453002 1.177711
  C 3.002967 -0.343088 -0.801937
  C 4.385111 -0.418868 -0.991705
  C 5.098642 -0.865288 -2.104876
  C 4.627195 -1.389719 -3.412863
  C 3.143332 -1.517670 -3.733237
  C 2.960064 -2.081700 -5.140102
  O 6.413414 -0.847956 -2.061718
  H 0.646402 0.563829 1.455513
  H 0.546334 -0.819036 0.355534
  H 0.545609 0.799843 -0.295584
  H 2.338767 -0.659440 -1.588371
  H 4.986245 -0.081895 -0.153118
  H 5.096941 -2.373275 -3.531545
  H 5.097555 -0.761069 -4.178175
  H 2.659987 -0.541169 -3.690666
  H 2.659408 -2.193989 -3.027970
  H 3.411867 -1.430261 -5.884410
  H 1.902212 -2.174380 -5.372228
  H 3.411332 -3.067153 -5.228088
  H 6.785367 -0.512810 -1.223544
 23
 12.134614
  C 0.873857 0.197077 0.543243
  C 2.465617 0.124433 0.361781
  H 3.100890 0.449594 1.169861
  C 3.007032 -0.344668 -0.805466
  C 4.391022 -0.425679 -1.008278
  C 5.084372 -0.872207 -2.122053
  C 4.627912 -1.392589 -3.419983
  C 3.147056 -1.523317 -3.747111
  C 2.973635 -2.087763 -5.155210
  O 6.521057 -0.852625 -2.074035
  H 0.588883 0.586587 1.511896
  H 0.447262 -0.795066 0.413289
  H 0.446878 0.822839 -0.237359
  H 2.328803 -0.657035 -1.582240
  H 5.002290 -0.091047 -0.175265
  H 5.103739 -2.374672 -3.537493
  H 5.104283 -0.764122 -4.183404
  H 2.661514 -0.547694 -3.707104
  H 2.661010 -2.200889 -3.044357
  H 3.428181 -1.435460 -5.896835
  H 1.917699 -2.183062 -5.393798
  H 3.427719 -3.071947 -5.240786
  H 6.879474 -0.517596 -1.236459
 23
 37.394877
  C 0.794952 0.211928 0.579654
  C 2.518832 0.123509 0.360020
  H 3.137707 0.451511 1.175647
  C 3.015313 -0.343529 -0.801894
  C 4.387845 -0.425878 -1.008165
  C 5.038741 -0.874673 -2.127893
  C 4.625895 -1.394892 -3.425347
  C 3.149200 -1.532446 -3.769113
  C 2.978150 -2.096369 -5.176942
  O 6.598792 -0.847818 -2.063115
  H 0.569942 0.605451 1.558578
  H 0.402404 -0.788903 0.445732
  H 0.402472 0.841522 -0.209812
  H 2.328153 -0.652783 -1.570874
  H 5.006306 -0.094538 -0.184403
  H 5.119635 -2.369074 -3.544829
  H 5.119832 -0.773194 -4.184618
  H 2.654095 -0.561619 -3.726040
  H 2.653643 -2.204607 -3.067685
  H 3.432979 -1.444409 -5.918680
  H 1.922517 -2.192192 -5.416862
  H 3.432370 -3.080424 -5.263219
  H 6.903429 -0.507513 -1.212456
 23
 66.888595
  C 0.681347 0.239968 0.651361
  C 2.542516 0.137361 0.393281
  H 3.142424 0.468811 1.215663
  C 3.000579 -0.332543 -0.775206
  C 4.398202 -0.427704 -1.014385
  C 5.001917 -0.886883 -2.158876
  C 4.628681 -1.402477 -3.444633
  C 3.157660 -1.546348 -3.805768
  C 3.006438 -2.111786 -5.215405
  O 6.680901 -0.862765 -2.097924
  H 0.524375 0.636837 1.637628
  H 0.328621 -0.768857 0.525822
  H 0.327537 0.880136 -0.137964
  H 2.298131 -0.635922 -1.527670
  H 5.038629 -0.101148 -0.203584
  H 5.137710 -2.375334 -3.557473
  H 5.139231 -0.778146 -4.198418
  H 2.661261 -0.574163 -3.768540
  H 2.659991 -2.222640 -3.107090
  H 3.466007 -1.459250 -5.953064
  H 1.953850 -2.212074 -5.466916
  H 3.465055 -3.093731 -5.297296
  H 6.948511 -0.515769 -1.229807
 23
 96.988069
  C 0.567675 0.240975 0.652572
  C 2.577818 0.143549 0.409539
  H 3.131715 0.484670 1.257492
  C 3.035953 -0.331086 -0.771587
  C 4.436328 -0.429838 -1.018593
  C 4.982557 -0.889312 -2.165443
  C 4.631629 -1.404059 -3.449880
  C 3.157343 -1.546013 -3.803902
  C 2.987540 -2.110578 -5.211625
  O 6.777098 -0.869936 -2.118069
  H 0.457141 0.638953 1.642375
  H 0.277519 -0.782736 0.526384
  H 0.277297 0.892379 -0.147198
  H 2.339493 -0.634666 -1.527214
  H 5.085833 -0.108414 -0.217804
  H 5.150246 -2.373470 -3.568498
  H 5.150916 -0.785120 -4.205282
  H 2.666215 -0.570500 -3.755812
  H 2.666223 -2.218335 -3.095126
  H 3.439773 -1.460690 -5.955996
  H 1.931086 -2.206094 -5.449109
  H 3.440281 -3.094572 -5.300726
  H 7.014624 -0.519500 -1.237702
 23
 126.578547
  C 0.470374 0.254775 0.685827
  C 2.610942 0.145822 0.416208
  H 3.163113 0.488853 1.270148
  C 3.050860 -0.327189 -0.761498
  C 4.444229 -0.429799 -1.017661
  C 4.972619 -0.891891 -2.171986
  C 4.630801 -1.407723 -3.459603
  C 3.154947 -1.551250 -3.816191
  C 2.987246 -2.114224 -5.220268
  O 6.894482 -0.872522 -2.126018
  H 0.386972 0.654583 1.680972
  H 0.193296 -0.779040 0.559445
  H 0.193838 0.914009 -0.120680
  H 2.344221 -0.630459 -1.517507
  H 5.101009 -0.110494 -0.221254
  H 5.150993 -2.373007 -3.577625
  H 5.150982 -0.790896 -4.211489
  H 2.663964 -0.577562 -3.767900
  H 2.664810 -2.222571 -3.108671
  H 3.439512 -1.463788 -5.964450
  H 1.931332 -2.210207 -5.457802
  H 3.440780 -3.098039 -5.309243
  H 7.116657 -0.529954 -1.263987
 23
 149.905878
  C 0.317343 0.236523 0.670523
  C 2.683795 0.165930 0.442884
  H 3.151166 0.528434 1.333365
  C 3.091570 -0.296091 -0.706331
  C 4.515925 -0.423508 -1.035021
  C 4.960546 -0.893838 -2.190709
  C 4.637120 -1.408155 -3.460794
  C 3.157285 -1.536331 -3.801718
  C 2.980693 -2.105455 -5.198197
  O 6.925124 -0.915070 -2.193630
  H 0.260889 0.635697 1.660502
  H 0.132549 -0.811695 0.536263
  H 0.116848 0.894690 -0.152521
  H 2.378804 -0.611035 -1.464550
  H 5.208459 -0.107348 -0.263940
  H 5.134370 -2.377093 -3.573544
  H 5.146581 -0.800538 -4.215616
  H 2.679271 -0.556275 -3.754500
  H 2.667419 -2.197283 -3.084711
  H 3.436618 -1.463162 -5.947307
  H 1.922960 -2.191949 -5.428163
  H 3.425242 -3.093956 -5.281041
  H 7.180016 -0.582551 -1.340643
 23
 111.952074
  C 0.007731 -0.198230 -0.163226
  C 3.167007 0.295563 0.460054
  H 2.975232 0.706213 1.424192
  C 3.669040 -0.157564 -0.606040
  C 5.034830 -0.327372 -1.052281
  C 5.429708 -0.899639 -2.210062
  C 4.634004 -1.440768 -3.358308
  C 3.117733 -1.329052 -3.355664
  C 2.540731 -1.895433 -4.663027
  O 6.745303 -1.030161 -2.462652
  H -0.285653 0.204557 0.782144
  H 0.206911 -1.247302 -0.256341
  H 0.092465 0.448182 -1.013452
  H 2.988649 -0.555987 -1.352533
  H 5.780693 0.033999 -0.366049
  H 4.919925 -2.488692 -3.471531
  H 5.021461 -0.941462 -4.246680
  H 2.817096 -0.275607 -3.280406
  H 2.691730 -1.919679 -2.530750
  H 2.926719 -1.354697 -5.521714
  H 1.455074 -1.811586 -4.669967
  H 2.799769 -2.943998 -4.778409
  H 7.308488 -0.768268 -1.716116
 23
 109.856532
  C 0.097425 -0.254559 -0.338642
  C 3.181991 0.290929 0.506106
  H 2.719610 0.694176 1.367131
  C 3.748845 -0.165274 -0.528961
  C 5.081100 -0.355291 -1.020646
  C 5.439896 -0.903255 -2.204723
  C 4.595325 -1.428365 -3.330020
  C 3.077361 -1.295430 -3.279026
  C 2.451814 -1.856243 -4.557785
  O 6.732607 -1.035336 -2.523408
  H -0.347506 0.150787 0.545402
  H 0.312588 -1.301436 -0.388445
  H 0.239481 0.372691 -1.193723
  H 3.017361 -0.550758 -1.264081
  H 5.854857 -0.026815 -0.341828
  H 4.862950 -2.483283 -3.446034
  H 4.965637 -0.933399 -4.233123
  H 2.793359 -0.242679 -3.209734
  H 2.672907 -1.881049 -2.447123
  H 2.813503 -1.317279 -5.430116
  H 1.369459 -1.763055 -4.526705
  H 2.699371 -2.907952 -4.679767
  H 7.338486 -0.727699 -1.829880
