 26
 0.000000
  C 0.968830 0.143567 0.403917
  C 2.445773 0.139318 0.393955
  C 3.233132 0.608329 1.559555
  C 2.459085 1.093645 2.780389
  H 3.139229 1.407444 3.560052
  C 3.056883 -0.326620 -0.764206
  C 4.434434 -0.411314 -0.975364
  C 5.117125 -0.862239 -2.098203
  C 4.626137 -1.385713 -3.401777
  C 3.137222 -1.503720 -3.696398
  H 2.987610 -1.902785 -4.690175
  O 6.439411 -0.855675 -2.082181
  H 0.544071 0.522290 1.326304
  H 0.583251 -0.865250 0.246706
  H 0.595264 0.756101 -0.417718
  H 3.886735 1.421745 1.224953
  H 3.892452 -0.207519 1.876388
  H 1.827039 0.298533 3.172908
  H 1.821677 1.936779 2.518519
  H 2.397065 -0.644069 -1.553089
  H 5.052657 -0.079159 -0.149521
  H 5.084963 -2.373185 -3.525504
  H 5.085345 -0.758374 -4.174148
  H 2.659330 -0.527350 -3.648895
  H 2.658966 -2.175845 -2.986853
  H 6.814320 -0.520591 -1.246157
 26
 4.826423
  C 0.968840 0.201572 0.385545
  C 2.417484 0.141804 0.380666
  C 3.226918 0.600921 1.533217
  C 2.465356 1.068799 2.767566
  H 3.174908 1.382182 3.530263
  C 3.042242 -0.332421 -0.782477
  C 4.410470 -0.416357 -0.970932
  C 5.096019 -0.860997 -2.071566
  C 4.611486 -1.380311 -3.372836
  C 3.124206 -1.490277 -3.663241
  H 3.001705 -1.891503 -4.666678
  O 6.408150 -0.855781 -2.043827
  H 0.507479 0.543310 1.299953
  H 0.849365 -0.854952 0.220474
  H 0.541114 0.736943 -0.463924
  H 3.863936 1.423534 1.185992
  H 3.907334 -0.204529 1.832416
  H 1.858087 0.269967 3.185961
  H 1.822406 1.916368 2.544123
  H 2.385188 -0.648625 -1.576847
  H 5.037805 -0.088219 -0.150454
  H 5.076144 -2.365373 -3.492219
  H 5.083280 -0.753777 -4.137899
  H 2.639578 -0.518697 -3.634596
  H 2.632651 -2.170380 -2.973674
  H 6.799613 -0.525361 -1.212651
 26
 14.240008
  C 0.961731 0.265854 0.400295
  C 2.398545 0.160754 0.399289
  C 3.219018 0.607510 1.545708
  C 2.451328 1.052963 2.778595
  H 3.148967 1.374641 3.544290
  C 3.026365 -0.327732 -0.782398
  C 4.397299 -0.417767 -0.966391
  C 5.093139 -0.870229 -2.075308
  C 4.611495 -1.391669 -3.386311
  C 3.122328 -1.499378 -3.688225
  H 3.003412 -1.898997 -4.689002
  O 6.429682 -0.871723 -2.046709
  H 0.492079 0.583133 1.303169
  H 1.058838 -0.821461 0.265425
  H 0.499504 0.715748 -0.474672
  H 3.832343 1.442592 1.191315
  H 3.920429 -0.181937 1.841099
  H 1.862296 0.236503 3.188097
  H 1.794408 1.889884 2.558359
  H 2.378165 -0.641942 -1.584436
  H 5.025845 -0.091504 -0.144228
  H 5.073774 -2.379972 -3.502355
  H 5.088482 -0.764530 -4.149990
  H 2.641042 -0.526669 -3.665589
  H 2.626303 -2.180710 -3.004111
  H 6.821711 -0.541457 -1.212855
 26
 22.910113
  C 0.938847 0.320546 0.416767
  C 2.377677 0.159620 0.393908
  C 3.215649 0.601780 1.556660
  C 2.447967 1.052996 2.805076
  H 3.151742 1.372188 3.567479
  C 3.009137 -0.327077 -0.783219
  C 4.390636 -0.426047 -0.974564
  C 5.088149 -0.878312 -2.085151
  C 4.627780 -1.399225 -3.406048
  C 3.149334 -1.514878 -3.735408
  H 3.052447 -1.912836 -4.740694
  O 6.399785 -0.879243 -2.046987
  H 0.477301 0.647044 1.330153
  H 1.204472 -0.771628 0.371579
  H 0.438053 0.665074 -0.470171
  H 3.817473 1.442163 1.189802
  H 3.914583 -0.187514 1.846155
  H 1.858447 0.237692 3.220930
  H 1.794127 1.895014 2.588445
  H 2.364735 -0.630527 -1.583826
  H 5.015766 -0.100199 -0.149021
  H 5.095465 -2.383534 -3.517706
  H 5.112484 -0.769668 -4.160007
  H 2.663059 -0.542468 -3.722338
  H 2.645860 -2.205146 -3.062932
  H 6.764218 -0.554275 -1.218116
 26
 29.057366
  C 0.940950 0.351150 0.401519
  C 2.367704 0.153485 0.382564
  C 3.202800 0.590244 1.550543
  C 2.451852 1.037610 2.787854
  H 3.167982 1.345453 3.546627
  C 3.008663 -0.329411 -0.797924
  C 4.382976 -0.424910 -0.971898
  C 5.087324 -0.875624 -2.077123
  C 4.625269 -1.395693 -3.399270
  C 3.141599 -1.505325 -3.718295
  H 3.037866 -1.904152 -4.727380
  O 6.422162 -0.878960 -2.036000
  H 0.475540 0.690628 1.299546
  H 1.327827 -0.730743 0.461065
  H 0.413117 0.588262 -0.509776
  H 3.797727 1.426716 1.183539
  H 3.899309 -0.202291 1.833910
  H 1.858819 0.232804 3.204555
  H 1.811315 1.885006 2.581243
  H 2.358561 -0.625046 -1.609078
  H 4.999069 -0.102188 -0.146487
  H 5.090775 -2.382150 -3.512511
  H 5.109698 -0.765903 -4.155092
  H 2.659744 -0.533992 -3.701044
  H 2.640647 -2.191059 -3.044271
  H 6.788108 -0.553241 -1.202783
 26
 32.194954
  C 0.948766 0.373256 0.376087
  C 2.365085 0.148585 0.385630
  C 3.203660 0.583336 1.551588
  C 2.442684 1.034010 2.793722
  H 3.161715 1.323866 3.566572
  C 3.008487 -0.331919 -0.811213
  C 4.384305 -0.430801 -0.982707
  C 5.087262 -0.877868 -2.083826
  C 4.623991 -1.393178 -3.403937
  C 3.144065 -1.495767 -3.713699
  H 3.032895 -1.896989 -4.730353
  O 6.425493 -0.884588 -2.041827
  H 0.455151 0.769923 1.250805
  H 1.434594 -0.696697 0.579536
  H 0.411288 0.449954 -0.550410
  H 3.805806 1.419631 1.191944
  H 3.889524 -0.212617 1.833819
  H 1.830403 0.236234 3.199839
  H 1.820237 1.896976 2.589982
  H 2.356084 -0.611884 -1.617173
  H 5.004462 -0.113102 -0.151204
  H 5.083956 -2.378126 -3.519149
  H 5.105482 -0.764533 -4.157203
  H 2.666057 -0.520186 -3.692839
  H 2.642922 -2.180129 -3.034717
  H 6.790124 -0.560711 -1.209667
 26
 34.678712
  C 0.945860 0.399329 0.376077
  C 2.357246 0.146020 0.392446
  C 3.208451 0.580476 1.558087
  C 2.448059 1.033656 2.798080
  H 3.161958 1.300727 3.575194
  C 2.997899 -0.335364 -0.811261
  C 4.372307 -0.437777 -0.982454
  C 5.081187 -0.877536 -2.081606
  C 4.632229 -1.392157 -3.416419
  C 3.149285 -1.503058 -3.749031
  H 3.054049 -1.899509 -4.760101
  O 6.418989 -0.879334 -2.027884
  H 0.462446 0.861920 1.219426
  H 1.518191 -0.660888 0.691439
  H 0.381706 0.332370 -0.537848
  H 3.822705 1.411903 1.205548
  H 3.879781 -0.225470 1.835928
  H 1.813537 0.242669 3.193137
  H 1.842692 1.914870 2.596319
  H 2.344248 -0.610017 -1.611781
  H 4.989632 -0.124230 -0.150039
  H 5.099678 -2.375746 -3.530272
  H 5.120105 -0.756591 -4.162509
  H 2.665036 -0.529447 -3.732910
  H 2.641916 -2.192139 -3.077889
  H 6.776291 -0.553232 -1.183801
 26
 38.012613
  C 0.944596 0.415722 0.354505
  C 2.355909 0.134990 0.383619
  C 3.207095 0.572617 1.550051
  C 2.445021 1.022967 2.790772
  H 3.161924 1.281451 3.576695
  C 3.000791 -0.341449 -0.810163
  C 4.372384 -0.439591 -0.976382
  C 5.087040 -0.878047 -2.082258
  C 4.634823 -1.386546 -3.404547
  C 3.145276 -1.495386 -3.722936
  H 3.037494 -1.889538 -4.729849
  O 6.419670 -0.878970 -2.035752
  H 0.471965 0.876415 1.183245
  H 1.587972 -0.649915 0.711011
  H 0.375683 0.307187 -0.556402
  H 3.840798 1.419899 1.198255
  H 3.869431 -0.234585 1.825425
  H 1.804702 0.236376 3.178310
  H 1.848426 1.910234 2.592323
  H 2.355649 -0.621270 -1.616232
  H 4.981087 -0.128795 -0.149718
  H 5.101419 -2.368200 -3.523242
  H 5.117219 -0.751125 -4.151700
  H 2.665628 -0.528661 -3.701287
  H 2.647277 -2.178628 -3.052829
  H 6.778282 -0.554822 -1.196216
 26
 40.542405
  C 0.952585 0.434795 0.346855
  C 2.352029 0.124147 0.394199
  C 3.216180 0.574217 1.558986
  C 2.449902 1.026279 2.797169
  H 3.160625 1.284856 3.581207
  C 2.995585 -0.349874 -0.808476
  C 4.361869 -0.444966 -0.973468
  C 5.080760 -0.876943 -2.075941
  C 4.639289 -1.387028 -3.411702
  C 3.145060 -1.506517 -3.751954
  H 3.052956 -1.899859 -4.763253
  O 6.422915 -0.871010 -2.018477
  H 0.455243 0.908091 1.200973
  H 1.640715 -0.655509 0.732251
  H 0.396238 0.296050 -0.551569
  H 3.848740 1.421672 1.205029
  H 3.883399 -0.239660 1.838010
  H 1.807329 0.240209 3.183826
  H 1.853163 1.913089 2.595225
  H 2.337378 -0.630969 -1.621556
  H 4.972986 -0.134394 -0.140217
  H 5.114609 -2.365992 -3.526723
  H 5.126979 -0.744567 -4.151421
  H 2.653758 -0.537213 -3.734537
  H 2.638661 -2.199581 -3.086035
  H 6.777670 -0.546059 -1.170929
 26
 42.412110
  C 0.945704 0.454492 0.330443
  C 2.349810 0.111641 0.401248
  C 3.221752 0.575888 1.564598
  C 2.457840 1.032686 2.807650
  H 3.173790 1.297152 3.592764
  C 2.997787 -0.359700 -0.813773
  C 4.361136 -0.452907 -0.976248
  C 5.077319 -0.880650 -2.080264
  C 4.631863 -1.385107 -3.414183
  C 3.162412 -1.499327 -3.739860
  H 3.066000 -1.890483 -4.753711
  O 6.412620 -0.874509 -2.025167
  H 0.453892 0.902732 1.148256
  H 1.685974 -0.678757 0.742811
  H 0.383006 0.286310 -0.583500
  H 3.833963 1.405920 1.210196
  H 3.893766 -0.233435 1.845390
  H 1.814758 0.242899 3.200651
  H 1.858630 1.917314 2.604522
  H 2.341314 -0.634949 -1.614385
  H 4.980868 -0.141068 -0.127034
  H 5.102672 -2.363807 -3.536855
  H 5.113415 -0.742253 -4.155288
  H 2.676264 -0.529944 -3.716023
  H 2.662010 -2.192997 -3.072015
  H 6.764926 -0.555063 -1.183314
 26
 43.226310
  C 0.956365 0.474137 0.313835
  C 2.351016 0.096053 0.409708
  C 3.220819 0.574782 1.561649
  C 2.448183 1.035998 2.812676
  H 3.160139 1.307563 3.596249
  C 3.008044 -0.370447 -0.815917
  C 4.372247 -0.464177 -0.976464
  C 5.092366 -0.888070 -2.087947
  C 4.640464 -1.381492 -3.412029
  C 3.157915 -1.491587 -3.723910
  H 3.049754 -1.875402 -4.732443
  O 6.426567 -0.880933 -2.039906
  H 0.444098 0.925547 1.140478
  H 1.737643 -0.715508 0.752393
  H 0.404185 0.284375 -0.592517
  H 3.817486 1.398903 1.203588
  H 3.903283 -0.228436 1.845034
  H 1.809495 0.244395 3.208451
  H 1.841103 1.918612 2.606303
  H 2.351207 -0.643127 -1.610323
  H 4.974735 -0.162755 -0.147455
  H 5.111187 -2.365366 -3.544200
  H 5.118587 -0.731618 -4.157634
  H 2.674880 -0.523065 -3.690049
  H 2.664606 -2.184876 -3.055921
  H 6.786317 -0.564856 -1.194266
 26
 43.822397
  C 0.956598 0.502100 0.312117
  C 2.348383 0.083699 0.427929
  C 3.225227 0.578526 1.574820
  C 2.458208 1.033553 2.816499
  H 3.159512 1.306311 3.587474
  C 3.008461 -0.376441 -0.809207
  C 4.368420 -0.470181 -0.967143
  C 5.092352 -0.888941 -2.079072
  C 4.644740 -1.383656 -3.420788
  C 3.160237 -1.502048 -3.748207
  H 3.062323 -1.885813 -4.767912
  O 6.421299 -0.873471 -2.021898
  H 0.438731 0.947684 1.135646
  H 1.780996 -0.748414 0.771841
  H 0.411534 0.299349 -0.588749
  H 3.818397 1.412543 1.208491
  H 3.908128 -0.215019 1.858483
  H 1.830145 0.245434 3.210160
  H 1.848734 1.906545 2.611139
  H 2.339434 -0.649500 -1.614277
  H 4.979373 -0.164854 -0.123498
  H 5.121272 -2.362800 -3.553215
  H 5.124260 -0.729246 -4.159039
  H 2.668374 -0.531458 -3.714835
  H 2.661682 -2.205257 -3.083182
  H 6.776397 -0.558835 -1.172312
 26
 42.570585
  C 0.964857 0.530913 0.299000
  C 2.335692 0.054620 0.440670
  C 3.221834 0.583365 1.572193
  C 2.462075 1.034624 2.815956
  H 3.168270 1.318121 3.581333
  C 3.008810 -0.388547 -0.812836
  C 4.366545 -0.484774 -0.965013
  C 5.091947 -0.896173 -2.080143
  C 4.644028 -1.379163 -3.418137
  C 3.169508 -1.496167 -3.743790
  H 3.072982 -1.872637 -4.759494
  O 6.419053 -0.877936 -2.022520
  H 0.442783 0.966070 1.124169
  H 1.832575 -0.823338 0.794809
  H 0.412575 0.322624 -0.600482
  H 3.798642 1.431603 1.188818
  H 3.920590 -0.198960 1.860676
  H 1.846311 0.243072 3.215809
  H 1.842753 1.897997 2.612315
  H 2.346678 -0.651044 -1.612378
  H 4.975143 -0.188691 -0.121156
  H 5.121704 -2.356364 -3.559043
  H 5.123024 -0.721420 -4.153133
  H 2.679772 -0.532463 -3.706654
  H 2.673953 -2.198845 -3.086810
  H 6.775944 -0.570157 -1.172006
 26
 41.741375
  C 0.978255 0.558197 0.283027
  C 2.333295 0.032966 0.449664
  C 3.222061 0.588727 1.571615
  C 2.464467 1.029935 2.813441
  H 3.175600 1.325744 3.581078
  C 3.013959 -0.398835 -0.810418
  C 4.368427 -0.495279 -0.960529
  C 5.097017 -0.900782 -2.080182
  C 4.652281 -1.375211 -3.412298
  C 3.165357 -1.496688 -3.745559
  H 3.072564 -1.868970 -4.759790
  O 6.417267 -0.878192 -2.021612
  H 0.451747 0.994290 1.106805
  H 1.893102 -0.875901 0.806897
  H 0.432941 0.357916 -0.619116
  H 3.777750 1.442526 1.180078
  H 3.943231 -0.187041 1.865520
  H 1.857554 0.224372 3.217448
  H 1.831534 1.885045 2.611505
  H 2.351542 -0.657237 -1.611752
  H 4.979447 -0.202863 -0.112659
  H 5.131529 -2.343797 -3.554912
  H 5.129864 -0.715710 -4.138888
  H 2.668207 -0.528851 -3.707304
  H 2.665598 -2.207388 -3.089229
  H 6.776964 -0.574165 -1.169616
