 13
 0.000000
  C 0.958416 -0.016733 -0.005120
  C 2.455022 0.002229 0.011477
  C 3.168311 0.812979 0.795088
  C 4.609902 0.832617 0.814875
  C 5.322191 1.642224 1.597364
  H 6.395914 1.651665 1.607173
  H 0.596940 -0.754775 -0.718798
  H 0.560932 0.954832 -0.295689
  H 0.562765 -0.278098 0.976203
  H 2.956207 -0.687665 -0.653696
  H 2.656830 1.499402 1.457768
  H 5.115294 0.143799 0.149827
  H 4.822280 2.330691 2.262084
 13
 3.641075
  C 0.958603 -0.010477 -0.044515
  C 2.429126 0.007712 0.005701
  C 3.145743 0.818392 0.787416
  C 4.589589 0.827824 0.827183
  C 5.303303 1.635501 1.603988
  H 6.379239 1.622688 1.609775
  H 0.562961 -0.762841 -0.717196
  H 0.522422 0.956227 -0.284877
  H 0.781347 -0.265916 0.978969
  H 2.951824 -0.681664 -0.646979
  H 2.641108 1.517127 1.443942
  H 5.088476 0.125139 0.171385
  H 4.827728 2.343123 2.263524
 13
 11.489839
  C 0.943089 -0.003017 -0.068097
  C 2.419212 0.015945 -0.009965
  C 3.130807 0.830558 0.769303
  C 4.576660 0.817545 0.839294
  C 5.287909 1.628370 1.608912
  H 6.366356 1.593796 1.635848
  H 0.527630 -0.760502 -0.711149
  H 0.479156 0.965356 -0.231301
  H 0.981326 -0.281664 0.967240
  H 2.962678 -0.672467 -0.654468
  H 2.626578 1.546952 1.406024
  H 5.076275 0.091934 0.210880
  H 4.817371 2.358859 2.240643
 13
 21.756667
  C 0.925855 0.003073 -0.086710
  C 2.412776 0.016925 -0.005821
  C 3.127884 0.838156 0.770252
  C 4.563486 0.808477 0.849986
  C 5.284376 1.626944 1.613034
  H 6.360770 1.581528 1.643064
  H 0.502986 -0.753027 -0.722710
  H 0.446464 0.967197 -0.192748
  H 1.128651 -0.296168 0.928284
  H 2.962742 -0.676845 -0.641739
  H 2.628619 1.567259 1.392749
  H 5.056875 0.068533 0.236827
  H 4.819079 2.376684 2.230360
 13
 31.860842
  C 0.911376 0.006205 -0.104952
  C 2.400578 0.024935 0.008625
  C 3.120749 0.853531 0.774795
  C 4.562100 0.805351 0.862806
  C 5.292764 1.627271 1.612429
  H 6.364390 1.564572 1.649390
  H 0.495121 -0.745122 -0.757529
  H 0.412159 0.957574 -0.142796
  H 1.238890 -0.333564 0.876905
  H 2.948585 -0.676563 -0.613735
  H 2.622739 1.601882 1.383142
  H 5.050316 0.042108 0.264317
  H 4.835608 2.396693 2.213654
 13
 40.190616
  C 0.905734 0.008090 -0.122634
  C 2.392398 0.028805 0.024001
  C 3.122138 0.867658 0.782039
  C 4.549797 0.803661 0.874306
  C 5.292864 1.629859 1.610921
  H 6.380189 1.550647 1.651469
  H 0.505794 -0.724651 -0.796564
  H 0.383128 0.950171 -0.093743
  H 1.330506 -0.379053 0.832708
  H 2.926376 -0.683222 -0.581196
  H 2.633466 1.626584 1.369795
  H 5.026808 0.026175 0.293347
  H 4.848663 2.411481 2.193247
 13
 46.366427
  C 0.901880 0.013415 -0.139181
  C 2.386524 0.030266 0.038358
  C 3.122564 0.877022 0.789822
  C 4.547885 0.798790 0.888130
  C 5.300981 1.629541 1.612759
  H 6.376304 1.545354 1.645895
  H 0.509162 -0.702287 -0.833463
  H 0.361449 0.941671 -0.049176
  H 1.401387 -0.416672 0.794555
  H 2.916242 -0.698641 -0.555997
  H 2.635382 1.649683 1.364490
  H 5.021083 0.006722 0.314212
  H 4.868108 2.427607 2.175663
 13
 49.933551
  C 0.896339 0.022693 -0.148913
  C 2.385833 0.022839 0.046390
  C 3.124470 0.889948 0.779049
  C 4.551398 0.793837 0.900508
  C 5.309022 1.633191 1.608086
  H 6.376321 1.530679 1.658813
  H 0.498305 -0.644548 -0.889633
  H 0.345515 0.917219 0.062334
  H 1.462193 -0.485922 0.737875
  H 2.922024 -0.724101 -0.534004
  H 2.634756 1.689860 1.321883
  H 5.020647 -0.021497 0.359208
  H 4.878523 2.460750 2.148632
 13
 53.861243
  C 0.902622 0.024093 -0.158488
  C 2.381623 0.013301 0.053152
  C 3.126444 0.893039 0.775313
  C 4.553432 0.793496 0.898974
  C 5.313735 1.633886 1.601178
  H 6.376743 1.516888 1.664159
  H 0.504832 -0.626245 -0.899324
  H 0.341484 0.916801 0.096693
  H 1.513699 -0.507197 0.714965
  H 2.910322 -0.732486 -0.515293
  H 2.637653 1.697261 1.305747
  H 5.022412 -0.035944 0.369110
  H 4.880537 2.475226 2.149875
 13
 56.935183
  C 0.898794 0.040266 -0.168814
  C 2.384254 0.008322 0.063522
  C 3.131305 0.893181 0.785114
  C 4.547172 0.786308 0.916560
  C 5.313176 1.631922 1.612008
  H 6.391808 1.527156 1.654617
  H 0.484893 -0.611867 -0.924853
  H 0.352823 0.899782 0.116087
  H 1.550861 -0.517497 0.706995
  H 2.924648 -0.753044 -0.515064
  H 2.641492 1.702609 1.310964
  H 5.012664 -0.037349 0.387106
  H 4.895548 2.468274 2.122826
 13
 59.583340
  C 0.901820 0.048933 -0.186071
  C 2.388981 -0.008694 0.067722
  C 3.139361 0.890995 0.778556
  C 4.555522 0.783165 0.915829
  C 5.321039 1.632148 1.607849
  H 6.390250 1.520594 1.661203
  H 0.477564 -0.598103 -0.927232
  H 0.346629 0.900683 0.146504
  H 1.587100 -0.537209 0.697535
  H 2.926722 -0.757301 -0.509771
  H 2.648159 1.704064 1.293593
  H 5.021504 -0.047416 0.399065
  H 4.898391 2.478146 2.121379
 13
 62.186323
  C 0.909101 0.058646 -0.197906
  C 2.389665 -0.022130 0.071957
  C 3.143819 0.886193 0.780173
  C 4.556316 0.779920 0.917434
  C 5.323254 1.631158 1.606822
  H 6.392301 1.518861 1.659311
  H 0.476486 -0.591517 -0.925167
  H 0.356607 0.907067 0.157393
  H 1.621870 -0.543202 0.699853
  H 2.930245 -0.766483 -0.507630
  H 2.649414 1.699979 1.292652
  H 5.026396 -0.056937 0.399878
  H 4.899617 2.481508 2.120630
 13
 64.362769
  C 0.921990 0.076788 -0.210277
  C 2.390999 -0.033456 0.079718
  C 3.148065 0.879764 0.791350
  C 4.551295 0.769947 0.931409
  C 5.319163 1.627430 1.614436
  H 6.398825 1.529701 1.645096
  H 0.476000 -0.580602 -0.927593
  H 0.374941 0.910456 0.165935
  H 1.652791 -0.548759 0.705145
  H 2.938613 -0.779501 -0.513978
  H 2.653015 1.692900 1.302315
  H 5.029230 -0.073317 0.399409
  H 4.898656 2.486031 2.106378
 13
 65.995173
  C 0.924091 0.086552 -0.226415
  C 2.395145 -0.046867 0.082913
  C 3.157207 0.881868 0.779386
  C 4.565308 0.779716 0.911981
  C 5.333592 1.633171 1.602485
  H 6.403944 1.517284 1.660538
  H 0.464823 -0.586419 -0.921507
  H 0.374450 0.910858 0.164511
  H 1.684941 -0.558118 0.722790
  H 2.938663 -0.786082 -0.510680
  H 2.660107 1.692285 1.289501
  H 5.034786 -0.061394 0.406422
  H 4.909598 2.471251 2.125409
