 15
 0.000000
  C 0.934555 0.052109 0.216887
  C 2.431373 0.061598 0.065325
  C 3.254034 -0.010211 1.325919
  H 2.630415 -0.063015 2.212822
  C 3.028202 0.127610 -1.118220
  C 2.359177 0.203560 -2.452693
  H 1.277385 0.200517 -2.380089
  H 4.109608 0.129190 -1.163711
  H 0.648351 0.002519 1.264784
  H 0.497630 -0.809272 -0.287477
  H 0.495117 0.955457 -0.204283
  H 3.897933 0.864873 1.410548
  H 3.901456 -0.886617 1.308729
  H 2.670201 -0.640018 -3.069888
  H 2.672134 1.110494 -2.971226
 15
 5.862770
  C 0.932934 0.099654 0.233426
  C 2.389066 0.059379 0.062609
  C 3.256226 -0.016212 1.342609
  H 2.637026 -0.087894 2.229296
  C 2.999875 0.113589 -1.116922
  C 2.340917 0.203530 -2.457500
  H 1.258440 0.229130 -2.381467
  H 4.082563 0.081274 -1.148315
  H 0.605737 0.015261 1.262401
  H 0.741031 -0.800730 -0.326334
  H 0.455096 0.962314 -0.220898
  H 3.880205 0.866688 1.428649
  H 3.911064 -0.879940 1.307519
  H 2.627804 -0.650642 -3.072239
  H 2.673089 1.103025 -2.976952
 15
 18.074133
  C 0.919748 0.132656 0.246233
  C 2.362408 0.062311 0.070677
  C 3.251687 -0.017515 1.334860
  H 2.633499 -0.116277 2.232642
  C 2.978370 0.097956 -1.105122
  C 2.329445 0.205191 -2.447613
  H 1.247835 0.270089 -2.379738
  H 4.062140 0.019485 -1.132991
  H 0.565957 0.007184 1.255018
  H 0.953522 -0.764465 -0.324085
  H 0.424831 0.949140 -0.245917
  H 3.851123 0.885345 1.421543
  H 3.924311 -0.869965 1.273135
  H 2.588760 -0.662260 -3.059719
  H 2.696037 1.094936 -2.969258
 15
 32.694350
  C 0.901651 0.156449 0.263987
  C 2.349617 0.058760 0.069257
  C 3.242053 -0.024826 1.334143
  H 2.629625 -0.144164 2.225546
  C 2.974668 0.085841 -1.107648
  C 2.324834 0.209109 -2.459837
  H 1.248001 0.294371 -2.394806
  H 4.061401 -0.019881 -1.130277
  H 0.540166 0.023859 1.278823
  H 1.123076 -0.743818 -0.294601
  H 0.386071 0.941069 -0.268156
  H 3.821836 0.889304 1.429120
  H 3.934268 -0.865073 1.264704
  H 2.564856 -0.653492 -3.070209
  H 2.700068 1.077670 -2.972668
 15
 45.249546
  C 0.892687 0.178788 0.275838
  C 2.342083 0.053607 0.055909
  C 3.233997 -0.040022 1.335963
  H 2.617746 -0.173828 2.222035
  C 2.978429 0.078099 -1.120374
  C 2.325627 0.213646 -2.466629
  H 1.244661 0.304096 -2.387207
  H 4.057432 -0.039851 -1.138162
  H 0.547280 0.081833 1.287408
  H 1.249588 -0.740004 -0.214981
  H 0.342419 0.899631 -0.312204
  H 3.800317 0.882427 1.439266
  H 3.933506 -0.867794 1.260961
  H 2.554851 -0.650088 -3.086794
  H 2.704487 1.094514 -2.986261
 15
 54.235773
  C 0.889207 0.204179 0.284712
  C 2.339017 0.041954 0.048402
  C 3.224745 -0.055633 1.332940
  H 2.608112 -0.207776 2.215773
  C 2.981000 0.069791 -1.132834
  C 2.327551 0.226415 -2.473828
  H 1.246827 0.319200 -2.386369
  H 4.049660 -0.060232 -1.149570
  H 0.552661 0.183416 1.309516
  H 1.357633 -0.754865 -0.105911
  H 0.310429 0.817453 -0.379309
  H 3.771778 0.871771 1.446959
  H 3.938781 -0.869953 1.252208
  H 2.550115 -0.636002 -3.112820
  H 2.706421 1.114750 -2.983786
 15
 60.555808
  C 0.887642 0.237039 0.297020
  C 2.336814 0.042163 0.044060
  C 3.214633 -0.075692 1.330153
  H 2.597542 -0.259949 2.202926
  C 2.982171 0.073551 -1.143269
  C 2.330007 0.232326 -2.483030
  H 1.246524 0.317361 -2.396473
  H 4.056140 -0.061830 -1.158079
  H 0.565191 0.300056 1.323258
  H 1.447337 -0.755718 -0.006131
  H 0.272586 0.725516 -0.429754
  H 3.749722 0.857641 1.474408
  H 3.942466 -0.880662 1.231609
  H 2.557145 -0.622756 -3.125910
  H 2.701766 1.123396 -2.988276
 15
 66.050204
  C 0.886056 0.260491 0.307220
  C 2.331465 0.030960 0.044312
  C 3.211391 -0.083276 1.329754
  H 2.596745 -0.286275 2.200284
  C 2.982161 0.065654 -1.147815
  C 2.333954 0.237619 -2.490216
  H 1.256114 0.329468 -2.406462
  H 4.051031 -0.084641 -1.159237
  H 0.565253 0.360938 1.329961
  H 1.512295 -0.760905 0.051611
  H 0.250532 0.661851 -0.452831
  H 3.734117 0.854958 1.484110
  H 3.948349 -0.875962 1.221316
  H 2.554293 -0.610797 -3.137998
  H 2.713302 1.133353 -2.990727
 15
 71.038535
  C 0.884060 0.283871 0.308093
  C 2.327153 0.022887 0.045681
  C 3.207603 -0.090639 1.325302
  H 2.600693 -0.304343 2.197281
  C 2.982939 0.064514 -1.153292
  C 2.339621 0.238291 -2.481383
  H 1.255978 0.329117 -2.394778
  H 4.055855 -0.087657 -1.162006
  H 0.561431 0.379718 1.324485
  H 1.561745 -0.759668 0.061889
  H 0.242233 0.650279 -0.465966
  H 3.726846 0.852214 1.489522
  H 3.951292 -0.874416 1.213616
  H 2.562761 -0.615761 -3.142108
  H 2.711914 1.123555 -2.970731
 15
 74.936910
  C 0.882697 0.310659 0.312590
  C 2.323670 0.013289 0.054261
  C 3.215363 -0.095656 1.337760
  H 2.610323 -0.315728 2.207520
  C 2.983870 0.060061 -1.148313
  C 2.336904 0.233384 -2.489998
  H 1.270079 0.318402 -2.407152
  H 4.053474 -0.090575 -1.154436
  H 0.548810 0.394004 1.324368
  H 1.598249 -0.768223 0.070384
  H 0.235787 0.642752 -0.477067
  H 3.719368 0.842109 1.497923
  H 3.970483 -0.881058 1.216069
  H 2.562438 -0.614392 -3.148219
  H 2.711955 1.136540 -2.986766
 15
 78.201171
  C 0.885463 0.334722 0.309382
  C 2.324011 -0.002367 0.055864
  C 3.219479 -0.099617 1.338311
  H 2.614510 -0.325267 2.208871
  C 2.989412 0.050156 -1.152427
  C 2.344650 0.234249 -2.483915
  H 1.262227 0.325588 -2.397593
  H 4.056667 -0.110487 -1.160027
  H 0.535280 0.398121 1.322127
  H 1.634746 -0.786809 0.067774
  H 0.241076 0.631907 -0.488044
  H 3.719501 0.852557 1.496715
  H 3.969265 -0.869858 1.213214
  H 2.565732 -0.606673 -3.145896
  H 2.719066 1.128399 -2.968965
 15
 80.635325
  C 0.891034 0.372291 0.315151
  C 2.320902 -0.013191 0.064233
  C 3.221047 -0.103005 1.342793
  H 2.620147 -0.336095 2.210590
  C 2.991328 0.047421 -1.149874
  C 2.344548 0.230241 -2.485588
  H 1.274585 0.313389 -2.401022
  H 4.060635 -0.112320 -1.155179
  H 0.527283 0.405540 1.320718
  H 1.671216 -0.809430 0.069908
  H 0.235902 0.634729 -0.493851
  H 3.705914 0.844644 1.498150
  H 3.985390 -0.874883 1.210581
  H 2.573175 -0.610904 -3.154989
  H 2.714981 1.132552 -2.969175
 15
 81.371878
  C 0.907737 0.427525 0.315568
  C 2.313358 -0.034770 0.065999
  C 3.225202 -0.108870 1.345767
  H 2.628333 -0.348188 2.216354
  C 2.994943 0.037184 -1.153648
  C 2.350676 0.225671 -2.485237
  H 1.271556 0.303174 -2.400149
  H 4.059728 -0.129859 -1.155819
  H 0.515219 0.400794 1.313951
  H 1.704389 -0.856988 0.061678
  H 0.239770 0.637839 -0.493748
  H 3.701789 0.851779 1.496749
  H 3.989069 -0.865683 1.209960
  H 2.584419 -0.602639 -3.157399
  H 2.716640 1.133999 -2.960615
 15
 81.421237
  C 0.922152 0.483438 0.319380
  C 2.307041 -0.053073 0.073660
  C 3.225634 -0.117450 1.349398
  H 2.636120 -0.363974 2.221241
  C 2.996623 0.028533 -1.156025
  C 2.351791 0.217010 -2.486308
  H 1.271896 0.282430 -2.401564
  H 4.060908 -0.139182 -1.155022
  H 0.507239 0.395888 1.307404
  H 1.743929 -0.903993 0.048357
  H 0.249304 0.655325 -0.497512
  H 3.691763 0.847395 1.500143
  H 3.997465 -0.865584 1.211030
  H 2.596389 -0.602810 -3.164596
  H 2.708156 1.133740 -2.955364
