 17
 0.000000
  C 0.985188 0.131885 0.379139
  C 2.490155 0.115665 0.338344
  C 3.225367 0.604586 1.555523
  H 2.531507 0.916108 2.331340
  C 3.125380 -0.324221 -0.757148
  C 4.555738 -0.391454 -0.924959
  C 5.144524 -0.837902 -2.037294
  H 4.593362 -1.184135 -2.899739
  O 6.484985 -0.916608 -2.233701
  H 0.616231 0.512514 1.326991
  H 0.587274 -0.872245 0.235617
  H 0.587097 0.757747 -0.419009
  H 3.860200 1.454503 1.308445
  H 3.860346 -0.180010 1.964916
  H 2.540216 -0.663709 -1.602354
  H 5.175476 -0.060773 -0.101319
  H 6.933824 -0.598563 -1.441361
 17
 0.022226
  C 0.989961 0.089538 0.393012
  C 2.487568 0.142850 0.326728
  C 3.214128 0.660749 1.533543
  H 2.515092 0.988785 2.298368
  C 3.128676 -0.281825 -0.769739
  C 4.557595 -0.350327 -0.933022
  C 5.141787 -0.848922 -2.023896
  H 4.587329 -1.197312 -2.878022
  O 6.477685 -0.987110 -2.211604
  H 0.632924 0.260470 1.402325
  H 0.625542 -0.876692 0.056986
  H 0.550968 0.848350 -0.254399
  H 3.850170 1.506319 1.269794
  H 3.847358 -0.113442 1.963290
  H 2.546892 -0.643954 -1.610083
  H 5.178163 -0.009330 -0.112096
  H 6.944764 -0.718277 -1.411585
 17
 -0.061941
  C 0.989257 0.062406 0.417087
  C 2.482195 0.156927 0.304451
  C 3.213551 0.717847 1.493655
  H 2.514597 1.058857 2.252626
  C 3.119957 -0.268426 -0.792500
  C 4.550699 -0.324050 -0.949369
  C 5.150704 -0.871937 -2.007677
  H 4.610711 -1.250748 -2.862163
  O 6.490560 -1.030609 -2.154324
  H 0.680466 -0.010556 1.457073
  H 0.614188 -0.805655 -0.120931
  H 0.516346 0.947207 -0.012219
  H 3.837187 1.562922 1.203846
  H 3.857925 -0.038320 1.942218
  H 2.544136 -0.661399 -1.619436
  H 5.161964 0.048736 -0.136582
  H 6.935116 -0.772654 -1.335378
 17
 1.010871
  C 0.993279 0.033084 0.455965
  C 2.473006 0.174322 0.260429
  C 3.232883 0.737779 1.431087
  H 2.550346 1.032073 2.230147
  C 3.088936 -0.226263 -0.856507
  C 4.523204 -0.269148 -1.002807
  C 5.163244 -0.908470 -1.983889
  H 4.671043 -1.339650 -2.845658
  O 6.505456 -1.091455 -2.020863
  H 0.761229 -0.179079 1.493768
  H 0.591823 -0.766950 -0.164500
  H 0.480365 0.955735 0.179930
  H 3.807143 1.617122 1.137850
  H 3.925723 0.000507 1.833263
  H 2.510145 -0.635193 -1.675348
  H 5.116115 0.204348 -0.229433
  H 6.869135 -0.828068 -1.167384
 17
 6.385133
  C 1.013874 0.019051 0.474307
  C 2.489440 0.164389 0.250468
  C 3.274010 0.720426 1.406673
  H 2.611620 1.006293 2.219894
  C 3.063944 -0.219994 -0.896271
  C 4.492519 -0.244969 -1.060250
  C 5.159695 -0.925872 -2.000135
  H 4.742735 -1.344359 -2.898419
  O 6.494928 -1.160911 -1.851615
  H 0.793322 -0.166641 1.519504
  H 0.609075 -0.798773 -0.122492
  H 0.494840 0.927923 0.176098
  H 3.839585 1.606536 1.110034
  H 3.980699 -0.017828 1.783223
  H 2.469637 -0.665899 -1.681312
  H 5.064239 0.419686 -0.425788
  H 6.661374 -0.844379 -0.952319
 17
 13.777189
  C 1.022988 0.004484 0.493543
  C 2.495088 0.131948 0.241765
  C 3.290702 0.717748 1.376840
  H 2.634336 1.032757 2.177735
  C 3.057365 -0.249606 -0.906688
  C 4.479187 -0.280171 -1.050330
  C 5.174363 -0.839261 -2.049970
  H 4.832778 -1.056028 -3.043429
  O 6.474067 -1.174351 -1.800105
  H 0.818026 -0.085972 1.557329
  H 0.614315 -0.865895 -0.013673
  H 0.495939 0.889783 0.135468
  H 3.870572 1.595943 1.057463
  H 3.982760 -0.027033 1.782660
  H 2.458523 -0.670677 -1.701578
  H 5.030862 0.343445 -0.359107
  H 6.502628 -0.991208 -0.843226
 17
 32.142445
  C 1.055841 0.015554 0.475257
  C 2.535763 0.115946 0.289115
  C 3.331096 0.701983 1.421751
  H 2.676809 0.965835 2.257283
  C 3.075208 -0.331685 -0.857999
  C 4.473097 -0.296369 -1.089056
  C 5.169805 -0.880469 -2.078463
  H 4.827252 -1.206915 -3.038107
  O 6.475038 -1.134991 -1.695754
  H 0.789211 -0.182411 1.500672
  H 0.637757 -0.754842 -0.178853
  H 0.586816 0.957644 0.165399
  H 3.847972 1.612400 1.106180
  H 4.096633 0.004038 1.763039
  H 2.456314 -0.759602 -1.619197
  H 4.994659 0.540046 -0.596789
  H 6.187790 -0.904639 -0.772427
 17
 61.620538
  C 1.058386 -0.009258 0.486140
  C 2.540544 0.112790 0.287760
  C 3.323768 0.754755 1.398952
  H 2.663091 1.094288 2.192686
  C 3.136396 -0.332965 -0.823272
  C 4.568425 -0.321978 -1.054662
  C 5.223957 -0.895027 -2.149548
  H 4.845477 -1.077928 -3.148768
  O 6.402791 -1.274142 -1.828336
  H 0.815623 -0.117553 1.540997
  H 0.660922 -0.865770 -0.053872
  H 0.550931 0.884074 0.116618
  H 3.885241 1.616296 1.037366
  H 4.037041 0.048009 1.824490
  H 2.544184 -0.816391 -1.589424
  H 5.091996 0.531407 -0.622918
  H 5.861730 -0.887946 -0.577126
 17
 33.426153
  C 1.052904 -0.027418 0.496296
  C 2.530018 0.156301 0.357461
  C 3.246906 0.803794 1.506203
  H 2.542686 1.038208 2.301667
  C 3.185909 -0.289456 -0.724919
  C 4.663122 -0.249591 -1.035387
  C 5.237941 -0.973142 -2.194500
  H 4.733074 -1.204738 -3.123127
  O 6.363746 -1.356635 -2.000866
  H 0.771247 -0.146652 1.547199
  H 0.661478 -0.843339 -0.123381
  H 0.560595 0.899013 0.172996
  H 3.767958 1.710189 1.201822
  H 3.962092 0.098754 1.941445
  H 2.587608 -0.747189 -1.515875
  H 5.185294 0.670270 -0.759631
  H 5.478972 -0.798336 -0.413091
 17
 15.691077
  C 1.114898 -0.045730 0.411183
  C 2.612970 0.090235 0.323602
  C 3.320338 0.794430 1.453139
  H 2.591773 1.202909 2.174577
  C 3.294617 -0.386407 -0.717186
  C 4.777766 -0.349583 -0.966000
  C 5.260759 -0.901165 -2.264750
  H 4.637558 -0.930469 -3.165865
  O 6.361170 -1.385329 -2.227821
  H 0.800568 -0.141234 1.457550
  H 0.755931 -0.934615 -0.130724
  H 0.633297 0.833869 -0.031172
  H 3.922247 1.627729 1.068377
  H 3.990626 0.116429 1.986515
  H 2.736796 -0.939624 -1.488571
  H 5.203806 0.632331 -0.739851
  H 5.510663 -0.981877 -0.385766
 17
 6.482728
  C 1.131555 -0.061379 0.402000
  C 2.633624 0.093184 0.328552
  C 3.328955 0.787846 1.466178
  H 2.615032 1.192741 2.177478
  C 3.301300 -0.344391 -0.735485
  C 4.780287 -0.303728 -0.964502
  C 5.254187 -0.914985 -2.243954
  H 4.559163 -0.942414 -3.101013
  O 6.341957 -1.428323 -2.299665
  H 0.801033 -0.146628 1.436984
  H 0.815783 -0.966853 -0.129588
  H 0.627741 0.786903 -0.063202
  H 3.928249 1.618558 1.085441
  H 4.014423 0.115475 1.973357
  H 2.754954 -0.896932 -1.489635
  H 5.235395 0.671898 -0.764456
  H 5.350586 -0.937800 -0.254524
 17
 2.060352
  C 1.131679 -0.044282 0.408599
  C 2.623743 0.079547 0.325315
  C 3.324557 0.760745 1.465382
  H 2.612546 1.140054 2.193462
  C 3.287867 -0.389901 -0.726164
  C 4.767318 -0.306050 -0.930941
  C 5.250610 -0.939675 -2.196672
  H 4.506253 -1.018969 -3.012618
  O 6.366294 -1.358853 -2.329976
  H 0.807064 -0.136589 1.442497
  H 0.777302 -0.907416 -0.149012
  H 0.662042 0.845643 -0.010538
  H 3.927735 1.595199 1.107307
  H 3.994862 0.062856 1.966964
  H 2.740003 -0.886447 -1.517518
  H 5.115053 0.731531 -0.893467
  H 5.329205 -0.812007 -0.136151
 17
 2.015668
  C 1.131294 -0.038312 0.419497
  C 2.623370 0.086101 0.299863
  C 3.362337 0.687671 1.460705
  H 2.676098 1.041771 2.224586
  C 3.269621 -0.327063 -0.785033
  C 4.753528 -0.245575 -0.958087
  C 5.281570 -0.965194 -2.159267
  H 4.543752 -1.148082 -2.965330
  O 6.417796 -1.336513 -2.262340
  H 0.814798 0.032782 1.456393
  H 0.787257 -0.987770 0.014746
  H 0.639571 0.757861 -0.140219
  H 3.977090 1.526527 1.136141
  H 4.026114 -0.050345 1.911280
  H 2.718867 -0.767916 -1.605090
  H 5.075656 0.800797 -1.033139
  H 5.284756 -0.653936 -0.090996
