 17
 0.000000
  C 1.011834 0.131417 0.376769
  C 2.483846 0.136150 0.389862
  C 3.209862 0.612629 1.576589
  H 2.544989 0.932008 2.371440
  C 3.135918 -0.322788 -0.752017
  C 4.519819 -0.388428 -0.916082
  C 5.141374 -0.846476 -2.056572
  H 4.605273 -1.198355 -2.930414
  O 6.428481 -0.911293 -2.222167
  H 0.584059 0.503343 1.302460
  H 0.640786 -0.878758 0.196003
  H 0.641543 0.736628 -0.452358
  H 3.862644 1.444969 1.308615
  H 3.862230 -0.174100 1.958931
  H 2.516484 -0.653326 -1.574944
  H 5.142745 -0.058349 -0.094480
  H 6.952435 -0.600927 -1.455548
 17
 0.309276
  C 1.025941 0.241210 0.317988
  C 2.484925 0.055778 0.418580
  C 3.191657 0.521725 1.622870
  H 2.504360 0.701858 2.442185
  C 3.158928 -0.497652 -0.666354
  C 4.542821 -0.456035 -0.846740
  C 5.127481 -0.852754 -2.033077
  H 4.525808 -1.256901 -2.839759
  O 6.389219 -0.794340 -2.318947
  H 0.607474 0.721456 1.196380
  H 0.532563 -0.718917 0.165170
  H 0.781065 0.833616 -0.567971
  H 3.701207 1.464902 1.406849
  H 3.954662 -0.181633 1.936608
  H 2.564551 -0.914464 -1.468585
  H 5.164793 -0.034275 -0.074932
  H 6.958113 -0.434508 -1.604356
 17
 5.279735
  C 1.111667 0.336560 0.208811
  C 2.525181 -0.007099 0.440723
  C 3.179812 0.476986 1.672131
  H 2.438965 0.623871 2.456647
  C 3.193747 -0.750810 -0.510948
  C 4.560025 -0.530776 -0.789225
  C 5.058824 -0.796576 -2.037506
  H 4.404623 -1.127432 -2.833746
  O 6.288487 -0.607140 -2.428203
  H 0.696813 0.931499 1.017846
  H 0.505591 -0.556282 0.079794
  H 0.997316 0.900081 -0.727190
  H 3.652083 1.455492 1.497108
  H 3.952367 -0.193694 2.009219
  H 2.605051 -1.255380 -1.264942
  H 5.214029 -0.145669 -0.034304
  H 6.891893 -0.286839 -1.724475
 17
 15.303031
  C 1.217981 0.431464 0.106192
  C 2.579729 -0.038434 0.444121
  C 3.175188 0.445633 1.696838
  H 2.401256 0.493658 2.463588
  C 3.194927 -0.961072 -0.386283
  C 4.521859 -0.605224 -0.739249
  C 4.954698 -0.693560 -2.041744
  H 4.257752 -0.848679 -2.852828
  O 6.166002 -0.466156 -2.458532
  H 0.829416 1.106508 0.858951
  H 0.533812 -0.412683 -0.022366
  H 1.234619 0.947977 -0.852877
  H 3.546010 1.461359 1.590147
  H 3.993311 -0.189463 2.034111
  H 2.615683 -1.568615 -1.081604
  H 5.242615 -0.368939 0.020429
  H 6.813653 -0.265754 -1.744685
 17
 35.415215
  C 1.404261 0.498039 -0.055127
  C 2.680019 -0.105758 0.416599
  C 3.194785 0.387337 1.707871
  H 2.351277 0.472073 2.391572
  C 3.190972 -1.213774 -0.238893
  C 4.436455 -0.589349 -0.635131
  C 4.751038 -0.511938 -1.968632
  H 3.988309 -0.575831 -2.730833
  O 5.947807 -0.328443 -2.467644
  H 1.024738 1.223233 0.652240
  H 0.651587 -0.275928 -0.230683
  H 1.568012 1.000493 -1.006209
  H 3.621839 1.382437 1.625221
  H 3.938092 -0.286271 2.136074
  H 2.656370 -1.928135 -0.846997
  H 5.225596 -0.438805 0.086542
  H 6.660235 -0.240385 -1.800207
 17
 44.058651
  C 1.685880 0.527806 -0.281574
  C 2.843413 -0.188585 0.373190
  C 3.254444 0.339454 1.719656
  H 2.351505 0.521162 2.300398
  C 3.186040 -1.479056 -0.072488
  C 4.279970 -0.575021 -0.470034
  C 4.467724 -0.370694 -1.839334
  H 3.628347 -0.414745 -2.523953
  O 5.592113 -0.149302 -2.430322
  H 1.330285 1.334100 0.352488
  H 0.870802 -0.161251 -0.466284
  H 1.983448 0.952810 -1.234631
  H 3.781665 1.287501 1.631302
  H 3.872926 -0.372210 2.257574
  H 2.686705 -2.244139 -0.626355
  H 5.121126 -0.447362 0.193135
  H 6.377723 -0.091136 -1.847080
 17
 46.963512
  C 1.756264 0.589511 -0.312123
  C 2.920524 -0.134976 0.343076
  C 3.201619 0.275404 1.777017
  H 2.260045 0.467099 2.280208
  C 3.284620 -1.435532 -0.086908
  C 4.290421 -0.394753 -0.440897
  C 4.383169 -0.301135 -1.848036
  H 3.478683 -0.245202 -2.449800
  O 5.455013 -0.339733 -2.543787
  H 1.360491 1.343146 0.362459
  H 0.956950 -0.108807 -0.555979
  H 2.067827 1.087348 -1.222714
  H 3.794348 1.184801 1.808698
  H 3.721977 -0.508978 2.314770
  H 2.919736 -2.343191 -0.497315
  H 5.193377 -0.295212 0.154459
  H 6.304259 -0.370941 -2.048668
 17
 49.674029
  C 1.775487 0.607345 -0.313700
  C 2.982846 -0.066481 0.325049
  C 3.180493 0.240676 1.807084
  H 2.218313 0.422009 2.275301
  C 3.434198 -1.344532 -0.143730
  C 4.333843 -0.190535 -0.428969
  C 4.297519 -0.282298 -1.851693
  H 3.361728 -0.156543 -2.385965
  O 5.284408 -0.579360 -2.612086
  H 1.323732 1.298157 0.390437
  H 1.026745 -0.127365 -0.596690
  H 2.063368 1.172541 -1.195305
  H 3.794722 1.128699 1.927397
  H 3.655624 -0.589447 2.320970
  H 3.224320 -2.352080 -0.406907
  H 5.265518 -0.045379 0.102635
  H 6.163012 -0.666645 -2.182185
 17
 49.074748
  C 1.800910 0.649446 -0.303094
  C 3.052818 0.021740 0.294939
  C 3.176756 0.155741 1.810570
  H 2.200342 0.253744 2.263767
  C 3.600039 -1.201661 -0.283005
  C 4.386289 0.060437 -0.435415
  C 4.170774 -0.341450 -1.801296
  H 3.229765 -0.159412 -2.311559
  O 5.076748 -0.840810 -2.589903
  H 1.305008 1.265879 0.444918
  H 1.102942 -0.109622 -0.630494
  H 2.058114 1.284502 -1.145759
  H 3.759383 1.040761 2.054300
  H 3.665659 -0.715830 2.242685
  H 3.518909 -2.260666 -0.384992
  H 5.337121 0.260854 0.027493
  H 5.983412 -0.890552 -2.224875
 17
 50.464121
  C 1.785309 0.569160 -0.279238
  C 3.113096 0.116626 0.308134
  C 3.228726 0.146781 1.821577
  H 2.293777 0.449322 2.276315
  C 3.645991 -1.119228 -0.382204
  C 4.410779 0.177553 -0.437945
  C 4.130603 -0.341898 -1.760687
  H 3.244556 -0.044309 -2.318103
  O 5.051719 -0.809059 -2.595510
  H 1.226371 1.129534 0.464236
  H 1.171103 -0.272937 -0.585432
  H 1.953477 1.203675 -1.147501
  H 4.000951 0.846347 2.133079
  H 3.488310 -0.834693 2.207184
  H 3.394575 -2.149726 -0.490872
  H 5.379669 0.350917 0.007396
  H 5.932636 -0.938408 -2.199853
 17
 57.770700
  C 1.818001 0.532802 -0.290639
  C 3.139609 0.204310 0.329516
  C 3.234347 0.179993 1.830796
  H 2.292814 0.501961 2.286614
  C 3.658366 -1.113115 -0.428032
  C 4.439210 0.143974 -0.398796
  C 4.153557 -0.331767 -1.731521
  H 3.307664 0.036227 -2.296385
  O 5.088279 -0.778921 -2.589593
  H 1.197461 1.057887 0.430325
  H 1.254748 -0.353470 -0.579696
  H 1.923584 1.135868 -1.190041
  H 4.041185 0.831097 2.166027
  H 3.457518 -0.801890 2.209593
  H 3.216880 -2.077593 -0.577400
  H 5.420399 0.283844 0.032442
  H 5.921493 -1.017642 -2.169236
 17
 67.482718
  C 1.789493 0.601227 -0.205747
  C 3.080436 0.280131 0.401422
  C 3.260985 0.323828 1.853768
  H 2.395696 0.731690 2.366589
  C 3.752483 -1.441818 -0.731393
  C 4.246606 -0.091621 -0.321789
  C 4.113803 -0.432457 -1.766559
  H 3.309926 -0.012159 -2.362683
  O 5.224147 -0.543569 -2.578657
  H 1.207767 1.230031 0.464607
  H 1.189715 -0.296281 -0.374939
  H 1.899549 1.089810 -1.172203
  H 4.155893 0.890607 2.112508
  H 3.440916 -0.680938 2.244221
  H 3.289656 -2.368401 -0.936396
  H 5.225094 0.020515 0.131425
  H 5.997170 -0.863811 -2.091781
 17
 70.556407
  C 1.803501 0.639925 -0.196792
  C 3.079251 0.290268 0.426769
  C 3.231001 0.332341 1.878500
  H 2.361556 0.748815 2.375594
  C 3.743874 -1.465063 -0.696187
  C 4.245686 -0.115451 -0.336996
  C 4.124529 -0.472226 -1.777246
  H 3.316983 -0.083220 -2.389072
  O 5.244462 -0.561254 -2.571342
  H 1.233578 1.295957 0.457469
  H 1.180548 -0.244231 -0.351806
  H 1.934457 1.105927 -1.171784
  H 4.128774 0.885854 2.155878
  H 3.395851 -0.675666 2.267968
  H 3.213994 -2.304818 -1.065331
  H 5.244903 -0.017708 0.071844
  H 6.013134 -0.879658 -2.078335
 17
 58.121761
  C 1.795956 0.557630 -0.167522
  C 3.090348 0.265446 0.444826
  C 3.263410 0.405459 1.886102
  H 2.394600 0.834860 2.375011
  C 3.837826 -1.558661 -0.880225
  C 4.184653 -0.218370 -0.334326
  C 4.197093 -0.551809 -1.875210
  H 3.422219 -0.176260 -2.540856
  O 5.393287 -0.425611 -2.515348
  H 1.220657 1.239820 0.453791
  H 1.196271 -0.352789 -0.252562
  H 1.897409 0.956240 -1.174767
  H 4.153798 0.992981 2.118401
  H 3.462806 -0.577354 2.323014
  H 2.945511 -2.121913 -1.043178
  H 5.192194 -0.082205 0.042800
  H 6.134661 -0.757398 -1.984773
 17
 51.095562
  C 1.769849 0.420794 -0.134826
  C 3.084455 0.174366 0.457128
  C 3.330462 0.540528 1.855089
  H 2.433385 0.892323 2.354312
  C 3.769260 -1.582731 -1.175630
  C 4.113428 -0.443006 -0.281142
  C 4.264041 -0.466756 -1.911893
  H 3.578215 0.143115 -2.507129
  O 5.508614 -0.277692 -2.381943
  H 1.201616 1.139816 0.446563
  H 1.200500 -0.507983 -0.137974
  H 1.832291 0.739349 -1.169969
  H 4.088394 1.325851 1.902640
  H 3.758071 -0.298638 2.402303
  H 2.852505 -2.132876 -1.190621
  H 5.081253 -0.482573 0.215276
  H 6.186758 -0.752750 -1.880025
