 14
 0.000000
  H 1.433016 -0.076531 0.037817
  C 2.506910 -0.082829 0.025455
  C 3.219714 -0.594033 -0.978126
  C 4.657464 -0.606024 -1.001661
  C 5.377349 -1.121152 -2.012943
  C 6.815677 -1.131677 -2.033606
  C 7.529727 -1.642240 -3.035934
  H 8.603402 -1.654192 -3.059394
  H 3.002749 0.352425 0.879933
  H 2.709488 -1.027518 -1.829118
  H 5.163741 -0.171767 -0.149147
  H 4.873263 -1.555867 -2.866361
  H 7.324400 -0.697491 -1.181227
  H 7.034468 -2.077981 -3.891356
 14
 0.565189
  H 1.391852 -0.081197 -0.081821
  C 2.470251 -0.048872 -0.061912
  C 3.217552 -0.681247 -0.963993
  C 4.656240 -0.631194 -0.985488
  C 5.396442 -1.230278 -1.931643
  C 6.820931 -1.074161 -2.033418
  C 7.559385 -1.597638 -3.009026
  H 8.625175 -1.439144 -3.076187
  H 2.919569 0.531129 0.728537
  H 2.743887 -1.257648 -1.748693
  H 5.142213 -0.095508 -0.180380
  H 4.920329 -1.865675 -2.669505
  H 7.266780 -0.394408 -1.315869
  H 7.120756 -2.221027 -3.766250
 14
 2.255555
  H 1.482994 0.152360 -0.002354
  C 2.549730 0.009046 0.019887
  C 3.205057 -0.590607 -0.973502
  C 4.631808 -0.767084 -0.991278
  C 5.348663 -1.268612 -2.011785
  C 6.784684 -1.179219 -2.027386
  C 7.550730 -1.550007 -3.052038
  H 8.621648 -1.448905 -3.030655
  H 3.066930 0.376754 0.891928
  H 2.665732 -0.929369 -1.850413
  H 5.145199 -0.482901 -0.078254
  H 4.865160 -1.768982 -2.839889
  H 7.211302 -0.647118 -1.184405
  H 7.125087 -1.982238 -3.943214
 14
 13.544876
  H 1.616677 0.454910 -0.154155
  C 2.644037 0.148309 -0.055676
  C 3.245330 -0.612893 -0.969332
  C 4.640732 -0.956542 -0.919006
  C 5.328128 -1.514773 -1.945563
  C 6.741460 -1.258240 -1.997866
  C 7.520766 -1.394131 -3.069706
  H 8.571091 -1.143221 -3.041337
  H 3.161675 0.475360 0.832792
  H 2.707386 -0.902867 -1.867580
  H 5.090479 -0.934644 0.063346
  H 4.839614 -2.057105 -2.737725
  H 7.022605 -0.634935 -1.151161
  H 7.127224 -1.725355 -4.020241
 14
 31.268783
  H 1.738522 0.593540 -0.135826
  C 2.717889 0.162298 -0.034446
  C 3.298773 -0.523179 -1.013148
  C 4.662406 -0.999356 -0.967165
  C 5.290859 -1.667696 -1.968305
  C 6.677692 -1.289570 -2.004738
  C 7.518088 -1.310459 -3.042905
  H 8.544966 -1.054669 -2.932896
  H 3.196657 0.283788 0.919554
  H 2.756335 -0.692155 -1.945009
  H 5.074329 -1.013312 0.025297
  H 4.821988 -2.374730 -2.641682
  H 6.761276 -0.544472 -1.210039
  H 7.192106 -1.598759 -4.028161
 14
 55.188054
  H 1.832150 0.616867 -0.005943
  C 2.817386 0.186528 0.028565
  C 3.349358 -0.463029 -1.022661
  C 4.633739 -1.089110 -0.997027
  C 5.199539 -1.742771 -2.103122
  C 6.536470 -1.341601 -2.129052
  C 7.546536 -1.233195 -3.012358
  H 8.545808 -1.016191 -2.670540
  H 3.364911 0.306047 0.952354
  H 2.814414 -0.472640 -1.957956
  H 4.977675 -1.355432 -0.013620
  H 4.737294 -2.528934 -2.683484
  H 6.479615 -0.641551 -1.229832
  H 7.398440 -1.222949 -4.074384
 14
 72.192739
  H 1.995520 0.799007 -0.168293
  C 2.919590 0.262331 -0.051394
  C 3.460981 -0.439944 -1.047251
  C 4.722292 -1.137676 -0.956002
  C 5.212517 -1.990189 -2.035915
  C 6.444869 -1.483848 -2.205751
  C 7.467714 -1.161038 -2.992485
  H 8.411284 -0.833259 -2.589820
  H 3.389893 0.319714 0.916800
  H 2.977482 -0.460611 -2.017475
  H 5.044380 -1.373537 0.052423
  H 4.717301 -2.822472 -2.502660
  H 6.109608 -0.620964 -1.202085
  H 7.327441 -1.021863 -4.054054
 14
 57.042825
  H 1.999876 0.819827 -0.182372
  C 2.918453 0.264459 -0.047027
  C 3.483589 -0.436133 -1.027294
  C 4.792490 -1.084488 -0.926861
  C 5.234228 -2.010362 -2.039220
  C 6.422633 -1.544590 -2.343960
  C 7.480778 -1.166416 -3.025868
  H 8.441616 -0.977861 -2.571776
  H 3.363441 0.300690 0.929786
  H 3.009118 -0.443904 -2.006796
  H 5.116390 -1.401992 0.077086
  H 4.675440 -2.837564 -2.450153
  H 5.826745 -0.533518 -1.119129
  H 7.381843 -0.882544 -4.060220
 14
 38.306227
  H 1.980859 0.787653 -0.299083
  C 2.911959 0.286317 -0.100389
  C 3.524200 -0.434183 -1.018592
  C 4.812190 -1.138238 -0.814287
  C 5.298350 -2.008025 -1.952930
  C 6.422707 -1.538751 -2.420559
  C 7.427427 -1.110773 -3.119451
  H 8.423679 -1.016562 -2.739018
  H 3.350751 0.448193 0.870936
  H 3.127531 -0.494889 -2.022981
  H 4.984838 -1.528153 0.199046
  H 4.769635 -2.853466 -2.357829
  H 5.761435 -0.536029 -0.826946
  H 7.277535 -0.767623 -4.134274
 14
 26.597152
  H 1.891987 0.713171 -0.188988
  C 2.871109 0.274081 -0.054930
  C 3.481992 -0.372900 -1.028628
  C 4.819698 -1.009495 -0.894499
  C 5.270493 -1.941885 -1.999670
  C 6.427825 -1.606401 -2.483685
  C 7.514398 -1.256395 -3.100181
  H 8.497081 -1.326322 -2.650112
  H 3.308458 0.370315 0.925942
  H 3.019473 -0.455545 -2.003296
  H 5.034778 -1.396983 0.111879
  H 4.696990 -2.803549 -2.291640
  H 5.673157 -0.314470 -0.977442
  H 7.461343 -0.752438 -4.055081
 14
 18.052497
  H 1.797388 0.584325 -0.237447
  C 2.797062 0.224213 -0.071528
  C 3.478317 -0.407675 -1.009644
  C 4.880753 -0.893204 -0.843005
  C 5.339686 -1.878301 -1.887553
  C 6.398639 -1.590263 -2.574970
  C 7.493708 -1.295155 -3.200603
  H 8.469521 -1.486954 -2.778675
  H 3.203906 0.383379 0.912313
  H 3.045565 -0.556530 -1.989995
  H 5.056513 -1.287609 0.165541
  H 4.762296 -2.775309 -2.056094
  H 5.619610 -0.081122 -0.932573
  H 7.478082 -0.792839 -4.156308
 14
 15.958561
  H 1.678179 0.413067 -0.198713
  C 2.722400 0.188847 -0.063149
  C 3.425454 -0.451758 -0.977905
  C 4.884898 -0.768290 -0.845216
  C 5.367148 -1.735102 -1.891539
  C 6.463519 -1.571262 -2.563714
  C 7.564898 -1.383289 -3.217272
  H 8.511925 -1.754671 -2.857159
  H 3.166828 0.525968 0.859536
  H 2.954243 -0.772996 -1.898833
  H 5.085881 -1.175168 0.153056
  H 4.745483 -2.603317 -2.064641
  H 5.476149 0.147220 -0.922488
  H 7.588222 -0.845679 -4.154364
 14
 16.238696
  H 1.635159 0.247064 0.016456
  C 2.705097 0.136658 0.047090
  C 3.375770 -0.452118 -0.924671
  C 4.867645 -0.615004 -0.937397
  C 5.335107 -1.602320 -1.971840
  C 6.489898 -1.546183 -2.557993
  C 7.646293 -1.461256 -3.134132
  H 8.523207 -1.936546 -2.723275
  H 3.200617 0.535034 0.917975
  H 2.848974 -0.842278 -1.786658
  H 5.207211 -0.942680 0.051451
  H 4.651609 -2.408156 -2.205677
  H 5.340022 0.356072 -1.122975
  H 7.782290 -0.927662 -4.062804
