 32
 0.000000
  C 0.968595 0.139559 0.399786
  C 2.446474 0.138095 0.395290
  C 3.234588 0.607541 1.562738
  C 2.459890 1.097982 2.783334
  C 3.411586 1.542722 3.889352
  C 3.060051 -0.326279 -0.760582
  C 4.438664 -0.411749 -0.974028
  C 5.116987 -0.861991 -2.096703
  C 4.624144 -1.385299 -3.401855
  C 3.133549 -1.503845 -3.698496
  C 2.910204 -2.065673 -5.099758
  O 6.442482 -0.856422 -2.082876
  H 0.534571 0.509998 1.321578
  H 0.596668 -0.872763 0.234636
  H 0.596187 0.755761 -0.419983
  H 3.890416 1.419326 1.227854
  H 3.890804 -0.209909 1.882732
  H 1.822091 0.301414 3.171703
  H 1.821748 1.941544 2.512498
  H 4.047696 0.720788 4.211720
  H 2.847743 1.889474 4.752422
  H 4.047336 2.359357 3.553108
  H 2.400405 -0.643242 -1.549305
  H 5.056655 -0.080289 -0.148507
  H 5.080415 -2.374059 -3.527113
  H 5.080878 -0.757314 -4.175545
  H 2.657812 -0.523560 -3.645355
  H 2.657343 -2.175603 -2.982898
  H 3.348932 -1.418113 -5.855828
  H 1.844947 -2.146914 -5.303133
  H 3.348485 -3.056409 -5.198895
  H 6.812375 -0.520880 -1.244772
 32
 1.691696
  C 0.962131 0.743913 0.184779
  C 2.418705 0.512858 0.202840
  C 3.201791 0.516684 1.461972
  C 2.458686 0.826973 2.757684
  C 3.420381 0.806415 3.942281
  C 3.030936 0.202630 -1.004028
  C 4.411361 0.192722 -1.231628
  C 5.118237 -0.438326 -2.245024
  C 4.632082 -1.329395 -3.333880
  C 3.152036 -1.662184 -3.467600
  C 2.943596 -2.654170 -4.608418
  O 6.429737 -0.309491 -2.297596
  H 0.555632 0.974706 1.161151
  H 0.451785 -0.135808 -0.209436
  H 0.725524 1.556986 -0.502365
  H 4.020104 1.238131 1.353464
  H 3.689754 -0.458613 1.566890
  H 1.676524 0.086061 2.931308
  H 1.994515 1.812990 2.700168
  H 3.884541 -0.170899 4.049287
  H 2.889716 1.028321 4.864335
  H 4.205605 1.549137 3.820513
  H 2.380524 0.110634 -1.857049
  H 5.020373 0.699011 -0.493031
  H 5.196644 -2.263775 -3.225706
  H 4.989926 -0.897524 -4.274909
  H 2.577787 -0.763101 -3.689180
  H 2.781379 -2.105911 -2.543080
  H 3.298226 -2.243248 -5.550990
  H 1.888142 -2.887979 -4.718786
  H 3.476492 -3.582545 -4.419548
  H 6.813112 0.270158 -1.611865
 32
 7.029632
  C 0.974448 1.091941 0.080544
  C 2.406705 0.719480 0.067662
  C 3.172329 0.457571 1.312012
  C 2.463291 0.674756 2.637886
  C 3.399755 0.365143 3.797823
  C 3.010554 0.453580 -1.145684
  C 4.396600 0.500553 -1.403796
  C 5.137915 -0.271482 -2.276438
  C 4.666698 -1.344145 -3.194889
  C 3.195526 -1.737152 -3.200998
  C 2.954172 -2.862046 -4.212279
  O 6.446480 -0.117005 -2.348628
  H 0.588109 1.245539 1.077047
  H 0.380132 0.321387 -0.410744
  H 0.828564 1.998845 -0.498048
  H 4.071457 1.087724 1.284751
  H 3.545368 -0.570562 1.279060
  H 1.592028 0.023547 2.710277
  H 2.130083 1.709736 2.723421
  H 3.737037 -0.667259 3.760238
  H 2.891666 0.518650 4.744540
  H 4.273502 1.014304 3.778076
  H 2.370682 0.487724 -2.016992
  H 4.949991 1.217062 -0.807960
  H 5.276829 -2.231586 -2.961410
  H 4.967863 -1.054698 -4.210279
  H 2.575443 -0.886226 -3.482748
  H 2.893790 -2.078522 -2.207743
  H 3.257192 -2.556347 -5.215599
  H 1.898929 -3.123743 -4.243798
  H 3.516739 -3.756989 -3.943465
  H 6.807049 0.587682 -1.778618
 32
 15.831059
  C 1.176308 1.417333 -0.013137
  C 2.467817 0.697470 0.055848
  C 3.097408 0.297109 1.339747
  C 2.393499 0.695053 2.631309
  C 3.194820 0.223330 3.839921
  C 3.096704 0.326294 -1.114160
  C 4.456629 0.487064 -1.474561
  C 5.164679 -0.216478 -2.422567
  C 4.683042 -1.363367 -3.240105
  C 3.224647 -1.779838 -3.126251
  C 2.952871 -3.006485 -3.993836
  O 6.442547 0.045480 -2.645945
  H 0.794203 1.664256 0.966015
  H 0.435162 0.815283 -0.532201
  H 1.297499 2.333892 -0.584177
  H 4.114366 0.707139 1.342725
  H 3.217234 -0.793599 1.333886
  H 1.400885 0.253136 2.675554
  H 2.295277 1.782694 2.683415
  H 3.319605 -0.857751 3.825242
  H 2.682509 0.490233 4.762213
  H 4.180924 0.682027 3.855855
  H 2.511527 0.576218 -1.989745
  H 4.996516 1.216530 -0.899803
  H 5.325621 -2.213356 -2.986842
  H 4.913642 -1.134188 -4.287672
  H 2.577178 -0.975019 -3.461008
  H 2.978555 -2.009945 -2.085414
  H 3.175461 -2.798518 -5.042386
  H 1.908928 -3.298617 -3.920425
  H 3.561158 -3.849617 -3.677887
  H 6.798065 0.792496 -2.132076
 32
 32.128452
  C 1.432659 1.585323 -0.130360
  C 2.678573 0.778144 0.035888
  C 3.101101 0.250049 1.372444
  C 2.250640 0.633254 2.578066
  C 2.858128 0.064361 3.855942
  C 3.374429 0.392806 -1.055444
  C 4.631404 0.612841 -1.670074
  C 5.240817 -0.199567 -2.609210
  C 4.633872 -1.365599 -3.298696
  C 3.274148 -1.860163 -2.839596
  C 2.854712 -3.070674 -3.657631
  O 6.442370 0.083258 -3.059904
  H 0.968346 1.800719 0.821312
  H 0.710192 1.057555 -0.761582
  H 1.667490 2.533410 -0.625424
  H 4.124009 0.590277 1.537820
  H 3.148582 -0.841965 1.319114
  H 1.241762 0.235989 2.471569
  H 2.190349 1.718102 2.671372
  H 2.872023 -1.024574 3.827009
  H 2.277479 0.375010 4.722601
  H 3.883195 0.417890 3.991676
  H 2.827259 0.750234 -1.925514
  H 5.249977 1.358498 -1.195825
  H 5.362455 -2.187650 -3.225763
  H 4.585217 -1.122743 -4.367058
  H 2.521046 -1.089507 -2.955058
  H 3.322404 -2.139303 -1.787563
  H 2.792569 -2.819332 -4.717533
  H 1.877090 -3.425974 -3.337710
  H 3.565767 -3.886797 -3.542496
  H 6.866160 0.867519 -2.670050
 32
 46.548452
  C 1.634765 1.719938 -0.264537
  C 2.895355 0.936805 -0.045987
  C 3.149153 0.202357 1.259744
  C 2.114374 0.389561 2.365951
  C 2.537443 -0.382337 3.616080
  C 3.756520 0.769229 -1.027196
  C 4.848924 0.857644 -1.930675
  C 5.238430 -0.079545 -2.883393
  C 4.514406 -1.324162 -3.255203
  C 3.356268 -1.767923 -2.369914
  C 2.786998 -3.095064 -2.866260
  O 6.345154 0.105821 -3.585857
  H 0.992197 1.688959 0.605912
  H 1.079016 1.319355 -1.105538
  H 1.871565 2.762006 -0.478997
  H 4.122319 0.525384 1.639082
  H 3.229553 -0.865607 1.039717
  H 1.139059 0.016509 2.042776
  H 2.019716 1.446752 2.624904
  H 2.633105 -1.445462 3.401717
  H 1.798131 -0.261886 4.402176
  H 3.492508 -0.020718 3.991582
  H 3.428528 1.423561 -1.955974
  H 5.556338 1.642355 -1.700876
  H 5.261834 -2.123648 -3.303953
  H 4.162075 -1.205944 -4.287914
  H 2.557475 -1.023111 -2.379257
  H 3.702385 -1.895519 -1.343438
  H 2.451882 -3.013439 -3.902012
  H 1.936333 -3.395415 -2.257229
  H 3.534434 -3.882134 -2.812901
  H 6.841793 0.911792 -3.362779
 32
 51.985878
  C 1.563482 1.573076 -0.287868
  C 2.884975 0.894967 -0.040093
  C 3.190911 0.227829 1.296328
  C 2.124031 0.366124 2.377813
  C 2.590885 -0.319553 3.658808
  C 3.778170 0.790616 -0.973916
  C 4.827409 0.885476 -1.926065
  C 5.263136 -0.129140 -2.824608
  C 4.529942 -1.369349 -3.192387
  C 3.247527 -1.682486 -2.428946
  C 2.649094 -2.998015 -2.918687
  O 6.405402 0.021957 -3.490726
  H 0.928017 1.539454 0.587130
  H 1.040773 1.085726 -1.108203
  H 1.723901 2.615278 -0.556656
  H 4.125698 0.648653 1.673324
  H 3.367032 -0.835158 1.116377
  H 1.191072 -0.099822 2.055779
  H 1.935887 1.419262 2.594519
  H 2.771228 -1.378949 3.488292
  H 1.834026 -0.225619 4.434030
  H 3.510955 0.129908 4.026543
  H 3.801519 1.419922 -2.249409
  H 5.576262 1.644375 -1.698751
  H 5.231503 -2.203884 -3.080377
  H 4.314231 -1.324776 -4.266900
  H 2.511212 -0.892252 -2.575654
  H 3.461312 -1.768703 -1.363245
  H 2.426918 -2.950430 -3.982685
  H 1.724901 -3.215949 -2.389057
  H 3.337026 -3.824073 -2.751796
  H 6.906317 0.824344 -3.259349
 32
 48.828178
  C 1.512802 1.497941 -0.255933
  C 2.862920 0.866087 -0.010771
  C 3.177347 0.181991 1.322380
  C 2.084497 0.242508 2.384734
  C 2.560225 -0.452779 3.657974
  C 3.765585 0.827394 -0.931605
  C 4.816234 0.961508 -1.871244
  C 5.294715 -0.082716 -2.762940
  C 4.566115 -1.311152 -3.162252
  C 3.237491 -1.601962 -2.469262
  C 2.642811 -2.904232 -2.996193
  O 6.456226 0.066730 -3.375132
  H 0.869662 1.413335 0.610117
  H 1.023189 1.011775 -1.097112
  H 1.635380 2.552350 -0.496036
  H 4.082276 0.641331 1.726857
  H 3.409527 -0.866444 1.120431
  H 1.180875 -0.258820 2.032059
  H 1.841802 1.280112 2.623402
  H 2.794798 -1.497981 3.464596
  H 1.785265 -0.414241 4.420465
  H 3.450737 0.030729 4.055398
  H 4.057825 1.548276 -2.462887
  H 5.599530 1.666294 -1.569545
  H 5.248504 -2.156734 -3.010811
  H 4.409837 -1.267960 -4.248184
  H 2.526513 -0.795123 -2.653013
  H 3.390251 -1.694589 -1.393668
  H 2.479567 -2.851407 -4.071106
  H 1.686160 -3.106172 -2.519284
  H 3.305272 -3.744119 -2.794220
  H 6.956287 0.864249 -3.122725
 32
 45.742535
  C 1.486226 1.387618 -0.290611
  C 2.857744 0.815849 -0.005355
  C 3.174034 0.201328 1.361970
  C 2.061234 0.254576 2.402404
  C 2.542482 -0.369257 3.709978
  C 3.769970 0.787579 -0.914097
  C 4.812330 0.951158 -1.863375
  C 5.317468 -0.130803 -2.722091
  C 4.582647 -1.349899 -3.124543
  C 3.201084 -1.580663 -2.521171
  C 2.599873 -2.874059 -3.063005
  O 6.488394 0.000935 -3.296821
  H 0.826834 1.284808 0.560842
  H 1.040417 0.875141 -1.139888
  H 1.573163 2.443488 -0.535341
  H 4.049600 0.716025 1.763639
  H 3.456028 -0.842307 1.205709
  H 1.187083 -0.298598 2.054127
  H 1.769241 1.288219 2.596605
  H 2.826857 -1.408744 3.561808
  H 1.752503 -0.334879 4.456419
  H 3.402561 0.168473 4.103346
  H 4.287626 1.600703 -2.595052
  H 5.619490 1.574854 -1.460336
  H 5.226861 -2.208762 -2.901313
  H 4.505047 -1.340960 -4.219139
  H 2.536441 -0.753529 -2.771219
  H 3.273114 -1.652013 -1.436873
  H 2.504373 -2.836130 -4.145950
  H 1.610659 -3.036906 -2.643050
  H 3.221232 -3.728890 -2.805826
  H 6.995086 0.796587 -3.046090
 32
 45.287095
  C 1.442756 1.223999 -0.286017
  C 2.849888 0.754776 0.018821
  C 3.201200 0.210524 1.406075
  C 2.083675 0.219409 2.442533
  C 2.602399 -0.326390 3.770291
  C 3.767016 0.770213 -0.886842
  C 4.751407 0.994969 -1.886829
  C 5.273249 -0.068560 -2.760971
  C 4.580514 -1.318449 -3.140339
  C 3.212293 -1.593247 -2.525821
  C 2.654017 -2.910877 -3.054146
  O 6.418036 0.110991 -3.372203
  H 0.786478 1.087033 0.562780
  H 1.041394 0.667855 -1.129635
  H 1.457440 2.279238 -0.547458
  H 4.036686 0.798035 1.792302
  H 3.556054 -0.815308 1.285523
  H 1.251769 -0.404732 2.111934
  H 1.719782 1.235793 2.602247
  H 2.959167 -1.347596 3.656352
  H 1.809249 -0.324410 4.514040
  H 3.421200 0.282576 4.147087
  H 4.204271 1.651549 -2.592409
  H 5.559985 1.620195 -1.488767
  H 5.256819 -2.151498 -2.914207
  H 4.495428 -1.324228 -4.234405
  H 2.518712 -0.791208 -2.778713
  H 3.292248 -1.653065 -1.441710
  H 2.543922 -2.882495 -4.135755
  H 1.677129 -3.109308 -2.621273
  H 3.310232 -3.740025 -2.800393
  H 6.900031 0.927372 -3.140149
 32
 45.109350
  C 1.464508 1.143597 -0.312514
  C 2.881807 0.724376 0.030020
  C 3.219414 0.219543 1.434432
  C 2.079523 0.204178 2.445529
  C 2.587181 -0.298336 3.793229
  C 3.818184 0.764833 -0.855443
  C 4.771810 1.001565 -1.886216
  C 5.269534 -0.064911 -2.773611
  C 4.563932 -1.304062 -3.148596
  C 3.193751 -1.566392 -2.532216
  C 2.623380 -2.878264 -3.058926
  O 6.403385 0.105822 -3.397533
  H 0.794978 0.990052 0.521595
  H 1.102294 0.568147 -1.160317
  H 1.449836 2.195975 -0.581910
  H 4.024495 0.845704 1.829130
  H 3.615079 -0.795414 1.341309
  H 1.279023 -0.456758 2.108653
  H 1.674274 1.210264 2.578744
  H 2.984595 -1.307669 3.705951
  H 1.777906 -0.314210 4.518974
  H 3.374239 0.348348 4.176841
  H 4.256720 1.691930 -2.583730
  H 5.604459 1.591730 -1.478521
  H 5.231997 -2.144469 -2.926876
  H 4.476476 -1.306832 -4.242740
  H 2.507986 -0.757040 -2.786514
  H 3.272845 -1.626012 -1.447335
  H 2.509738 -2.848253 -4.140009
  H 1.646705 -3.069242 -2.622800
  H 3.273675 -3.712945 -2.807568
  H 6.900721 0.917880 -3.169087
 32
 44.969009
  C 1.452953 1.020907 -0.309039
  C 2.884450 0.679062 0.051810
  C 3.237046 0.238099 1.473900
  C 2.096138 0.219859 2.484849
  C 2.619949 -0.208265 3.853197
  C 3.821175 0.728742 -0.830859
  C 4.765165 0.981625 -1.869381
  C 5.282856 -0.083757 -2.748231
  C 4.576523 -1.320148 -3.142511
  C 3.165953 -1.541444 -2.607975
  C 2.579655 -2.825939 -3.185706
  O 6.434865 0.082880 -3.345077
  H 0.784684 0.852079 0.524307
  H 1.125837 0.411356 -1.147671
  H 1.390315 2.066583 -0.600176
  H 4.017209 0.906027 1.845250
  H 3.668836 -0.763712 1.418662
  H 1.321854 -0.484108 2.175016
  H 1.653118 1.213000 2.576495
  H 3.055738 -1.203914 3.807139
  H 1.810210 -0.225856 4.578640
  H 3.380417 0.482512 4.210773
  H 4.234235 1.656372 -2.568125
  H 5.584838 1.589529 -1.465695
  H 5.211836 -2.169803 -2.863953
  H 4.556515 -1.343053 -4.239388
  H 2.525359 -0.704797 -2.888505
  H 3.181532 -1.617795 -1.522027
  H 2.527533 -2.777859 -4.270978
  H 1.573845 -2.987825 -2.807238
  H 3.185111 -3.686513 -2.911351
  H 6.928698 0.889288 -3.104210
