 20
 0.000000
  C 0.957742 0.160015 0.446247
  C 2.417819 0.124158 0.363703
  H 3.023282 0.460624 1.191639
  C 3.003289 -0.341061 -0.791918
  C 4.383482 -0.413524 -0.978222
  C 5.101746 -0.857795 -2.090499
  C 4.630689 -1.382158 -3.398308
  C 3.147801 -1.508491 -3.708861
  H 3.032403 -1.909685 -4.710386
  O 6.415049 -0.837680 -2.045701
  H 0.589357 0.548802 1.389965
  H 0.551772 -0.841812 0.290655
  H 0.564126 0.764077 -0.373982
  H 2.324923 -0.651634 -1.568062
  H 4.991255 -0.077852 -0.143887
  H 5.106016 -2.362925 -3.516749
  H 5.104015 -0.753310 -4.161485
  H 2.657963 -0.539097 -3.676635
  H 2.660182 -2.188895 -3.016021
  H 6.798116 -0.504357 -1.212009
 20
 2.742715
  C 0.978686 0.128315 0.414140
  C 2.440187 0.127015 0.398076
  H 3.017491 0.509669 1.227204
  C 3.014794 -0.335095 -0.751238
  C 4.393367 -0.417378 -0.960344
  C 5.106558 -0.860023 -2.089527
  C 4.614806 -1.372622 -3.399590
  C 3.127285 -1.482461 -3.687466
  H 3.001076 -1.876871 -4.692617
  O 6.425601 -0.847579 -2.055255
  H 0.533230 0.609973 1.277752
  H 0.594018 -0.892958 0.336854
  H 0.679289 0.604077 -0.534268
  H 2.266419 -0.612175 -1.495894
  H 5.004329 -0.091553 -0.123608
  H 5.082199 -2.355468 -3.531366
  H 5.085502 -0.743426 -4.164034
  H 2.643608 -0.510999 -3.651783
  H 2.639769 -2.167804 -3.000718
  H 6.818676 -0.523095 -1.222914
 20
 6.236133
  C 0.999337 0.099549 0.359869
  C 2.454329 0.125227 0.421191
  H 2.998446 0.530516 1.261060
  C 3.043791 -0.331917 -0.735735
  C 4.406794 -0.421897 -0.950521
  C 5.107781 -0.859831 -2.085485
  C 4.594173 -1.357997 -3.392723
  C 3.101418 -1.444392 -3.651964
  H 2.949467 -1.832081 -4.657549
  O 6.419800 -0.858868 -2.063035
  H 0.482468 0.691009 1.099610
  H 0.645924 -0.935655 0.435553
  H 0.800581 0.380181 -0.692914
  H 2.260274 -0.570607 -1.450760
  H 5.019336 -0.107905 -0.113630
  H 5.046532 -2.346206 -3.538105
  H 5.061272 -0.730690 -4.161149
  H 2.635139 -0.466351 -3.603486
  H 2.618564 -2.125771 -2.960041
  H 6.820593 -0.543693 -1.232566
 20
 12.206061
  C 1.013099 0.073452 0.310330
  C 2.462566 0.124848 0.435874
  H 2.980699 0.553589 1.281035
  C 3.059749 -0.330256 -0.716825
  C 4.423827 -0.429386 -0.948206
  C 5.105125 -0.861236 -2.085974
  C 4.578643 -1.342821 -3.379973
  C 3.080824 -1.415127 -3.624072
  H 2.915092 -1.796063 -4.629057
  O 6.419937 -0.870460 -2.078678
  H 0.446298 0.743473 0.938431
  H 0.662898 -0.952589 0.511361
  H 0.911092 0.195513 -0.781795
  H 2.227190 -0.533583 -1.414288
  H 5.049411 -0.126024 -0.115681
  H 5.021722 -2.334942 -3.534137
  H 5.043942 -0.713500 -4.149250
  H 2.624335 -0.432744 -3.565957
  H 2.599404 -2.095381 -2.929749
  H 6.835618 -0.561711 -1.246441
 20
 20.246137
  C 1.021536 0.051441 0.260864
  C 2.465692 0.111436 0.446781
  H 2.960374 0.517365 1.319500
  C 3.081557 -0.323051 -0.707092
  C 4.445165 -0.425252 -0.942438
  C 5.113854 -0.855933 -2.085864
  C 4.562363 -1.334067 -3.374085
  C 3.057606 -1.392760 -3.585297
  H 2.866050 -1.773503 -4.585260
  O 6.425218 -0.871215 -2.094246
  H 0.420990 0.777878 0.790971
  H 0.653963 -0.943092 0.540756
  H 1.025801 0.059975 -0.869133
  H 2.211715 -0.502448 -1.388259
  H 5.077075 -0.123386 -0.113688
  H 4.994516 -2.329736 -3.537132
  H 5.018698 -0.709405 -4.152572
  H 2.611900 -0.405718 -3.518649
  H 2.585334 -2.067159 -2.878642
  H 6.854520 -0.562897 -1.261823
 20
 29.766843
  C 1.026765 0.048318 0.237539
  C 2.463047 0.088103 0.465107
  H 2.938875 0.440507 1.362669
  C 3.092429 -0.318692 -0.693955
  C 4.456076 -0.419309 -0.936455
  C 5.118252 -0.845787 -2.085760
  C 4.554582 -1.329785 -3.378733
  C 3.048025 -1.391810 -3.576494
  H 2.847376 -1.776638 -4.572265
  O 6.431733 -0.857520 -2.101677
  H 0.430505 0.827696 0.691045
  H 0.614163 -0.906715 0.569898
  H 1.116751 -0.027134 -0.902408
  H 2.173326 -0.467581 -1.355067
  H 5.091766 -0.113379 -0.115428
  H 4.986174 -2.325100 -3.542469
  H 5.002487 -0.705205 -4.161189
  H 2.603229 -0.406513 -3.509566
  H 2.584983 -2.062428 -2.863229
  H 6.859724 -0.550892 -1.280128
 20
 40.892362
  C 1.027236 0.055520 0.234346
  C 2.462687 0.063907 0.477845
  H 2.933696 0.360860 1.397896
  C 3.094310 -0.317925 -0.689347
  C 4.455899 -0.415445 -0.941015
  C 5.112868 -0.838564 -2.091512
  C 4.552145 -1.327225 -3.377468
  C 3.048505 -1.399897 -3.574272
  H 2.850671 -1.793095 -4.569688
  O 6.429850 -0.844566 -2.113419
  H 0.452710 0.865822 0.654614
  H 0.567426 -0.878346 0.576372
  H 1.180498 -0.060696 -0.930030
  H 2.121997 -0.431724 -1.335227
  H 5.099493 -0.098279 -0.123355
  H 4.989311 -2.320459 -3.537231
  H 4.995744 -0.702674 -4.162109
  H 2.597203 -0.413403 -3.513837
  H 2.589215 -2.071161 -2.854191
  H 6.860051 -0.534228 -1.292904
 20
 51.933161
  C 1.027622 0.064016 0.237416
  C 2.457385 0.036072 0.486335
  H 2.920131 0.281994 1.419770
  C 3.096078 -0.317849 -0.681158
  C 4.456531 -0.411632 -0.943205
  C 5.111941 -0.831874 -2.099214
  C 4.553569 -1.326810 -3.377929
  C 3.048845 -1.412693 -3.569165
  H 2.851676 -1.811966 -4.554463
  O 6.428913 -0.831233 -2.128626
  H 0.471182 0.899357 0.658407
  H 0.529279 -0.852521 0.546869
  H 1.227401 -0.059429 -0.946009
  H 2.072800 -0.392640 -1.315719
  H 5.098918 -0.086983 -0.137800
  H 4.999516 -2.319356 -3.533942
  H 4.991318 -0.701130 -4.167626
  H 2.595327 -0.439724 -3.516410
  H 2.602153 -2.074656 -2.850958
  H 6.862226 -0.515913 -1.306638
 20
 61.021765
  C 1.028065 0.080926 0.233432
  C 2.455683 -0.013394 0.488251
  H 2.907424 0.138724 1.450790
  C 3.111244 -0.317936 -0.675671
  C 4.471736 -0.401191 -0.944726
  C 5.121717 -0.816239 -2.098320
  C 4.553691 -1.327849 -3.372628
  C 3.040003 -1.427951 -3.540888
  H 2.827111 -1.850124 -4.534882
  O 6.440135 -0.805413 -2.138160
  H 0.510210 0.926912 0.669326
  H 0.479249 -0.827120 0.480070
  H 1.250866 -0.030522 -1.003929
  H 2.037556 -0.339483 -1.348407
  H 5.114893 -0.053524 -0.147001
  H 5.005838 -2.317737 -3.523869
  H 4.976184 -0.705727 -4.172587
  H 2.575154 -0.444119 -3.494729
  H 2.603653 -2.091112 -2.795630
  H 6.872504 -0.485099 -1.326102
 20
 68.984890
  C 1.022616 0.098484 0.252583
  C 2.448085 -0.063595 0.490923
  H 2.888861 -0.011571 1.475471
  C 3.122082 -0.314463 -0.664726
  C 4.479449 -0.390528 -0.950587
  C 5.121154 -0.803361 -2.103835
  C 4.548424 -1.334493 -3.371595
  C 3.047239 -1.450323 -3.522538
  H 2.831593 -1.887658 -4.496354
  O 6.442468 -0.782602 -2.155281
  H 0.544000 0.942550 0.725112
  H 0.431438 -0.797810 0.417734
  H 1.251206 0.031512 -1.061587
  H 1.994732 -0.265373 -1.395324
  H 5.129186 -0.018022 -0.160491
  H 5.006688 -2.319896 -3.513438
  H 4.955906 -0.718953 -4.180690
  H 2.578197 -0.475563 -3.491344
  H 2.626998 -2.098907 -2.765835
  H 6.877629 -0.454219 -1.347840
 20
 76.572187
  C 1.017566 0.113974 0.282709
  C 2.436795 -0.128867 0.488420
  H 2.855437 -0.194186 1.478780
  C 3.141470 -0.308417 -0.649680
  C 4.492304 -0.377593 -0.953878
  C 5.129318 -0.788774 -2.109622
  C 4.555014 -1.343103 -3.367419
  C 3.044530 -1.481236 -3.502006
  H 2.824996 -1.940997 -4.459426
  O 6.450154 -0.751373 -2.175108
  H 0.580654 0.952539 0.812415
  H 0.378255 -0.761611 0.346720
  H 1.244100 0.127948 -1.129474
  H 1.950060 -0.160331 -1.462789
  H 5.142831 0.018584 -0.176618
  H 5.026182 -2.326764 -3.497498
  H 4.948318 -0.732153 -4.189987
  H 2.562978 -0.508924 -3.490043
  H 2.636942 -2.118398 -2.724381
  H 6.887002 -0.411694 -1.373714
 20
 83.001477
  C 1.010225 0.114840 0.309725
  C 2.418642 -0.203426 0.469964
  H 2.808638 -0.395794 1.460663
  C 3.168061 -0.304294 -0.634598
  C 4.511349 -0.365963 -0.959027
  C 5.138118 -0.773266 -2.115566
  C 4.553054 -1.353526 -3.357818
  C 3.044406 -1.512432 -3.459781
  H 2.809645 -2.003292 -4.405288
  O 6.459880 -0.714177 -2.202268
  H 0.615357 0.924325 0.907632
  H 0.327543 -0.724538 0.253992
  H 1.230469 0.267168 -1.213759
  H 1.909318 -0.008006 -1.556693
  H 5.165441 0.048731 -0.192688
  H 5.033564 -2.332279 -3.478575
  H 4.923085 -0.751395 -4.196095
  H 2.552608 -0.546113 -3.465413
  H 2.658863 -2.130059 -2.656578
  H 6.901457 -0.360363 -1.411069
 20
 87.172112
  C 1.002635 0.105233 0.332573
  C 2.391255 -0.288993 0.428443
  H 2.734608 -0.631862 1.398582
  C 3.202063 -0.308166 -0.616149
  C 4.533734 -0.358009 -0.962518
  C 5.150484 -0.755988 -2.124901
  C 4.550893 -1.363041 -3.346972
  C 3.042253 -1.553335 -3.400506
  H 2.788802 -2.070368 -4.324061
  O 6.468764 -0.666242 -2.237712
  H 0.654143 0.870268 1.014160
  H 0.272771 -0.673550 0.153501
  H 1.209642 0.457718 -1.304031
  H 1.874899 0.202742 -1.667873
  H 5.190422 0.075004 -0.208816
  H 5.049186 -2.338229 -3.465109
  H 4.886809 -0.763027 -4.204749
  H 2.529744 -0.596775 -3.414800
  H 2.690616 -2.156630 -2.569493
  H 6.917778 -0.297238 -1.457259
 20
 88.347557
  C 0.993977 0.082535 0.330414
  C 2.359168 -0.374078 0.363166
  H 2.639382 -0.876269 1.288437
  C 3.239652 -0.317499 -0.602548
  C 4.557287 -0.348227 -0.957459
  C 5.163564 -0.736981 -2.135510
  C 4.537888 -1.369721 -3.330610
  C 3.034187 -1.596477 -3.319547
  H 2.754194 -2.136202 -4.222061
  O 6.471073 -0.612512 -2.282204
  H 0.677802 0.760578 1.110482
  H 0.229460 -0.618950 0.024932
  H 1.209642 0.699330 -1.384280
  H 1.868367 0.465355 -1.770730
  H 5.213393 0.104410 -0.213853
  H 5.055719 -2.330883 -3.459284
  H 4.825451 -0.778184 -4.208782
  H 2.498578 -0.653785 -3.327737
  H 2.729330 -2.189053 -2.463418
  H 6.931128 -0.228321 -1.517642
