 29
 0.000000
  H 1.460605 0.161803 0.459086
  C 2.539040 0.145711 0.417192
  C 3.299357 0.615392 1.582758
  C 2.452201 1.088476 2.759691
  C 3.330910 1.554709 3.916296
  C 3.101936 -0.324505 -0.752819
  C 4.476186 -0.419633 -0.991097
  C 5.137964 -0.876349 -2.130874
  C 4.612192 -1.393111 -3.421140
  C 3.116731 -1.500450 -3.691097
  C 2.879448 -2.061182 -5.091212
  O 6.453127 -0.878812 -2.137145
  H 3.959353 1.434312 1.271849
  H 3.960623 -0.189654 1.925487
  H 1.810234 0.277205 3.107502
  H 1.809009 1.913657 2.448839
  H 3.966311 0.747464 4.273450
  H 2.714846 1.888696 4.747302
  H 3.965014 2.385149 3.614218
  H 2.419329 -0.635038 -1.524677
  H 5.118061 -0.094159 -0.180546
  H 5.063534 -2.383128 -3.556267
  H 5.064482 -0.770799 -4.202379
  H 2.647932 -0.517632 -3.632119
  H 2.647004 -2.170303 -2.970091
  H 3.315068 -1.415353 -5.849893
  H 1.813344 -2.139438 -5.288064
  H 3.314220 -3.052593 -5.194052
  H 6.862320 -0.549711 -1.313708
 29
 8.953597
  H 1.468471 0.177013 0.497781
  C 2.547604 0.159928 0.453548
  C 3.298924 0.632477 1.625698
  C 2.431475 1.100862 2.790257
  C 3.289117 1.572671 3.960138
  C 3.110117 -0.310784 -0.717337
  C 4.474164 -0.402324 -0.946668
  C 5.200447 -0.913213 -2.222226
  C 4.643960 -1.421471 -3.491721
  C 3.139439 -1.510591 -3.716428
  C 2.853969 -2.067970 -5.108969
  O 6.499630 -0.913190 -2.222904
  H 3.959079 1.454225 1.322989
  H 3.960316 -0.168826 1.976616
  H 1.788884 0.285352 3.127113
  H 1.787717 1.921434 2.468214
  H 3.923923 0.769170 4.326848
  H 2.658647 1.903124 4.781849
  H 3.922673 2.406870 3.667224
  H 2.428984 -0.622375 -1.491894
  H 5.125985 -0.081721 -0.148004
  H 5.082566 -2.416008 -3.638473
  H 5.083520 -0.803739 -4.284321
  H 2.685295 -0.522266 -3.642226
  H 2.684288 -2.174135 -2.980831
  H 3.274749 -1.427107 -5.880147
  H 1.781843 -2.133648 -5.274659
  H 3.273793 -3.064369 -5.224615
  H 6.912578 -0.583817 -1.399249
 29
 26.973840
  H 1.494660 0.191652 0.527013
  C 2.573700 0.168099 0.469491
  C 3.314748 0.639346 1.642476
  C 2.415706 1.100078 2.787201
  C 3.238793 1.578631 3.978588
  C 3.124789 -0.297863 -0.689756
  C 4.480320 -0.381000 -0.895562
  C 5.266895 -0.947201 -2.308696
  C 4.663771 -1.442210 -3.543778
  C 3.154356 -1.510248 -3.713455
  C 2.816893 -2.063472 -5.094763
  O 6.536828 -0.926038 -2.257388
  H 3.974950 1.462618 1.348946
  H 3.974214 -0.158472 2.000776
  H 1.771977 0.276493 3.101709
  H 1.772907 1.912853 2.443838
  H 3.871501 0.779795 4.358967
  H 2.586357 1.903367 4.785164
  H 3.872406 2.417843 3.700306
  H 2.447724 -0.606631 -1.459499
  H 5.177275 -0.076106 -0.134350
  H 5.085991 -2.441299 -3.711981
  H 5.086060 -0.835958 -4.355551
  H 2.720422 -0.514533 -3.623805
  H 2.720364 -2.168833 -2.961232
  H 3.220406 -1.427803 -5.879128
  H 1.739690 -2.116288 -5.226676
  H 3.220445 -3.064861 -5.223603
  H 6.934271 -0.596235 -1.433646
 29
 47.312333
  H 1.508089 0.195131 0.533363
  C 2.583320 0.173847 0.483460
  C 3.311813 0.652688 1.676720
  C 2.386038 1.106372 2.801754
  C 3.177168 1.591179 4.010133
  C 3.157808 -0.293935 -0.679847
  C 4.496426 -0.365836 -0.856247
  C 5.346063 -0.985938 -2.405855
  C 4.700567 -1.469627 -3.612954
  C 3.177010 -1.508916 -3.709036
  C 2.758577 -2.054875 -5.072688
  O 6.619297 -0.955076 -2.331646
  H 3.971275 1.483217 1.398162
  H 3.969289 -0.140845 2.051256
  H 1.742021 0.277873 3.103798
  H 1.744436 1.914937 2.445490
  H 3.807944 0.796752 4.403324
  H 2.504791 1.910967 4.802509
  H 3.810346 2.435046 3.744384
  H 2.489024 -0.608001 -1.464551
  H 5.231049 -0.076776 -0.132606
  H 5.103733 -2.477235 -3.800364
  H 5.102964 -0.869778 -4.444278
  H 2.768679 -0.505621 -3.596105
  H 2.769572 -2.157574 -2.934921
  H 3.133796 -1.426537 -5.877150
  H 1.675017 -2.086515 -5.150279
  H 3.134691 -3.064279 -5.221809
  H 7.024052 -0.622082 -1.500302
 29
 67.232496
  H 1.475366 0.222399 0.601690
  C 2.555481 0.198704 0.545779
  C 3.287480 0.675536 1.733798
  C 2.362510 1.130243 2.861165
  C 3.155823 1.615494 4.070297
  C 3.131783 -0.273692 -0.628908
  C 4.488090 -0.347497 -0.809789
  C 5.391021 -1.023777 -2.500146
  C 4.727862 -1.501904 -3.693596
  C 3.208541 -1.530064 -3.761704
  C 2.761174 -2.072092 -5.115885
  O 6.639968 -0.992375 -2.424572
  H 3.946365 1.505248 1.454290
  H 3.944431 -0.117968 2.107193
  H 1.718512 0.301951 3.163521
  H 1.720865 1.938823 2.505119
  H 3.786674 0.820881 4.462768
  H 2.484595 1.935611 4.863334
  H 3.789046 2.458952 3.803750
  H 2.461436 -0.585608 -1.408279
  H 5.246800 -0.066849 -0.106851
  H 5.120575 -2.510175 -3.886921
  H 5.119737 -0.905388 -4.529563
  H 2.811043 -0.523277 -3.639833
  H 2.812021 -2.175302 -2.978772
  H 3.125745 -1.446480 -5.927021
  H 1.676456 -2.095652 -5.173120
  H 3.126792 -3.084181 -5.272027
  H 7.044382 -0.662602 -1.600918
 29
 84.853813
  H 1.470998 0.222495 0.605656
  C 2.555616 0.207767 0.571662
  C 3.273659 0.690761 1.772758
  C 2.331203 1.141982 2.890298
  C 3.106675 1.632764 4.110348
  C 3.163174 -0.261560 -0.594629
  C 4.495760 -0.325365 -0.750604
  C 5.445317 -1.058174 -2.584811
  C 4.753048 -1.531893 -3.768585
  C 3.233070 -1.537151 -3.779976
  C 2.720701 -2.070073 -5.113059
  O 6.697637 -1.021863 -2.498177
  H 3.930414 1.524793 1.501727
  H 3.928992 -0.099224 2.155975
  H 1.687579 0.309952 3.184475
  H 1.689394 1.946816 2.524998
  H 3.737099 0.841758 4.510977
  H 2.423431 1.949666 4.894673
  H 3.738931 2.479294 3.851036
  H 2.511472 -0.576740 -1.382109
  H 5.301750 -0.066190 -0.100030
  H 5.125488 -2.544097 -3.971221
  H 5.124789 -0.938210 -4.613438
  H 2.860652 -0.524133 -3.637348
  H 2.861256 -2.173075 -2.978185
  H 3.061268 -1.450211 -5.938714
  H 1.634380 -2.075160 -5.124729
  H 3.061913 -3.088043 -5.284360
  H 7.103822 -0.691364 -1.673482
 29
 100.297416
  H 1.465867 0.239685 0.649736
  C 2.540077 0.226574 0.619286
  C 3.253999 0.709045 1.818350
  C 2.308942 1.157474 2.929022
  C 3.077515 1.648492 4.148767
  C 3.149497 -0.239874 -0.539706
  C 4.483084 -0.301941 -0.691351
  C 5.484282 -1.091000 -2.666643
  C 4.779925 -1.557223 -3.831911
  C 3.252245 -1.549455 -3.811143
  C 2.705467 -2.078446 -5.134490
  O 6.739883 -1.057815 -2.587569
  H 3.910720 1.544818 1.548981
  H 3.909589 -0.080728 2.204077
  H 1.666196 0.324797 3.220637
  H 1.667682 1.960658 2.561308
  H 3.707596 0.858513 4.551307
  H 2.391007 1.964219 4.930227
  H 3.709099 2.495788 3.891222
  H 2.491271 -0.559824 -1.338710
  H 5.304296 -0.050426 -0.059929
  H 5.143539 -2.575934 -4.040639
  H 5.143031 -0.963110 -4.685576
  H 2.891348 -0.532023 -3.659548
  H 2.891862 -2.182207 -2.999987
  H 3.033600 -1.461239 -5.968002
  H 1.618709 -2.074057 -5.122774
  H 3.034004 -3.099917 -5.313236
  H 7.158684 -0.726040 -1.758969
 29
 112.737102
  H 1.447676 0.256733 0.693467
  C 2.529237 0.246963 0.670747
  C 3.236919 0.732523 1.876762
  C 2.280707 1.179008 2.982824
  C 3.039832 1.673539 4.210465
  C 3.152694 -0.220029 -0.489447
  C 4.477219 -0.279085 -0.633725
  C 5.524921 -1.125292 -2.752129
  C 4.798485 -1.590017 -3.913803
  C 3.275633 -1.568095 -3.858396
  C 2.693300 -2.090944 -5.166276
  O 6.776339 -1.095515 -2.681116
  H 3.892999 1.570008 1.611828
  H 3.892225 -0.055103 2.266948
  H 1.637982 0.343654 3.269949
  H 1.639069 1.980657 2.609965
  H 3.669725 0.885430 4.617815
  H 2.346395 1.987285 4.987199
  H 3.670817 2.523039 3.957411
  H 2.505875 -0.538846 -1.284954
  H 5.317858 -0.036954 -0.025930
  H 5.148524 -2.610131 -4.129260
  H 5.148378 -0.999773 -4.773376
  H 2.929604 -0.548460 -3.697597
  H 2.929761 -2.195891 -3.038906
  H 3.007486 -1.477231 -6.006970
  H 1.607606 -2.076010 -5.128812
  H 3.007514 -3.115054 -5.352354
  H 7.197977 -0.768016 -1.862581
 29
 121.983603
  H 1.441144 0.274903 0.739166
  C 2.517986 0.269116 0.726253
  C 3.211654 0.753268 1.928437
  C 2.249376 1.197068 3.027792
  C 3.000910 1.692450 4.257135
  C 3.152671 -0.196274 -0.429753
  C 4.477988 -0.255116 -0.573200
  C 5.564114 -1.159727 -2.837877
  C 4.822282 -1.619869 -3.988232
  C 3.299612 -1.581476 -3.892187
  C 2.674029 -2.097994 -5.184223
  O 6.823676 -1.139343 -2.790447
  H 3.867000 1.591241 1.666572
  H 3.866279 -0.032470 2.321236
  H 1.607596 0.361196 3.311742
  H 1.608544 1.996734 2.652227
  H 3.630205 0.905934 4.667376
  H 2.303403 2.004598 5.029934
  H 3.631150 2.542873 4.007113
  H 2.504555 -0.519428 -1.236114
  H 5.330020 -0.018854 0.020432
  H 5.158415 -2.643642 -4.209667
  H 5.158483 -1.031307 -4.854670
  H 2.969643 -0.556892 -3.720313
  H 2.969557 -2.205014 -3.061245
  H 2.971837 -1.487542 -6.034086
  H 1.589516 -2.070748 -5.116451
  H 2.971564 -3.126146 -5.378968
  H 7.259988 -0.811295 -1.970888
 29
 128.353864
  H 1.422730 0.293113 0.785827
  C 2.504594 0.292277 0.785109
  C 3.185882 0.779686 1.994444
  C 2.215064 1.222372 3.090694
  C 2.960854 1.720091 4.324793
  C 3.154059 -0.172712 -0.369432
  C 4.476651 -0.231965 -0.514023
  C 5.601917 -1.194495 -2.924463
  C 4.843043 -1.654506 -4.075054
  C 3.323690 -1.602059 -3.944052
  C 2.660810 -2.111458 -5.218620
  O 6.865293 -1.184830 -2.903675
  H 3.842064 1.619080 1.736067
  H 3.841515 -0.004399 2.390999
  H 1.573278 0.384926 3.372264
  H 1.573982 2.021201 2.712065
  H 3.590057 0.934962 4.738617
  H 2.258784 2.031071 5.094517
  H 3.590746 2.572065 4.077880
  H 2.514620 -0.496266 -1.176567
  H 5.335305 0.001504 0.072861
  H 5.166203 -2.681000 -4.301429
  H 5.166370 -1.067249 -4.946872
  H 3.008970 -0.575334 -3.762746
  H 3.008796 -2.220768 -3.104936
  H 2.943574 -1.504160 -6.075271
  H 1.578913 -2.073323 -5.123741
  H 2.943258 -3.142059 -5.420564
  H 7.307565 -0.861152 -2.094302
 29
 132.714788
  H 1.409004 0.313762 0.839072
  C 2.488361 0.316808 0.847572
  C 3.156028 0.804011 2.055044
  C 2.182413 1.244908 3.146875
  C 2.925001 1.743196 4.380927
  C 3.146264 -0.146566 -0.302530
  C 4.471701 -0.207246 -0.451150
  C 5.634025 -1.228008 -3.007884
  C 4.863122 -1.685156 -4.152152
  C 3.346786 -1.619370 -3.987987
  C 2.647782 -2.122318 -5.246717
  O 6.904544 -1.231276 -3.018716
  H 3.812443 1.642952 1.798633
  H 3.812340 0.022103 2.452897
  H 1.541559 0.407455 3.427390
  H 1.541713 2.042459 2.767265
  H 3.554049 0.959289 4.796303
  H 2.221287 2.053355 5.148716
  H 3.554187 2.595639 4.135417
  H 2.507392 -0.473215 -1.116818
  H 5.332124 0.025295 0.133484
  H 5.174113 -2.713707 -4.382143
  H 5.174446 -1.098729 -5.027826
  H 3.046272 -0.589102 -3.797663
  H 3.046025 -2.234608 -3.140082
  H 2.916205 -1.517440 -6.110305
  H 1.568501 -2.073843 -5.126006
  H 2.915880 -3.155904 -5.455430
  H 7.362466 -0.908291 -2.209688
 29
 135.639496
  H 1.386655 0.334767 0.894787
  C 2.468954 0.341546 0.911850
  C 3.127227 0.831860 2.124670
  C 2.149538 1.272498 3.215608
  C 2.890744 1.772567 4.451419
  C 3.135383 -0.121198 -0.235950
  C 4.460010 -0.182709 -0.387552
  C 5.664474 -1.260520 -3.088504
  C 4.880303 -1.717294 -4.233058
  C 3.366794 -1.641205 -4.043386
  C 2.640467 -2.138113 -5.288062
  O 6.937086 -1.275511 -3.128049
  H 3.785266 1.671347 1.869785
  H 3.785924 0.051467 2.524453
  H 1.508915 0.434216 3.496049
  H 1.508211 2.069677 2.834860
  H 3.520230 0.989580 4.868573
  H 2.185366 2.082409 5.218324
  H 3.519479 2.625910 4.206785
  H 2.502156 -0.448681 -1.051383
  H 5.320934 0.050454 0.198603
  H 5.181370 -2.748096 -4.466053
  H 5.181857 -1.130892 -5.112091
  H 3.077968 -0.609418 -3.846161
  H 3.077557 -2.253219 -3.189787
  H 2.897707 -1.535229 -6.156105
  H 1.564210 -2.081601 -5.147395
  H 2.897237 -3.173262 -5.501835
  H 7.403415 -0.957170 -2.329250
 29
 137.611032
  H 1.367426 0.359076 0.958311
  C 2.448306 0.367918 0.980769
  C 3.097145 0.858335 2.191487
  C 2.118931 1.298501 3.279633
  C 2.859286 1.799213 4.514379
  C 3.118506 -0.094117 -0.163846
  C 4.445210 -0.157198 -0.319809
  C 5.689142 -1.291783 -3.166103
  C 4.894325 -1.746005 -4.305685
  C 3.384438 -1.660949 -4.093265
  C 2.634052 -2.152481 -5.326163
  O 6.964549 -1.318028 -3.234190
  H 3.756250 1.696532 1.937329
  H 3.757144 0.079981 2.591714
  H 1.478897 0.460675 3.560362
  H 1.477920 2.094894 2.898449
  H 3.488625 1.017065 4.932505
  H 2.153615 2.109163 5.280425
  H 3.487593 2.652509 4.269819
  H 2.485889 -0.423221 -0.983051
  H 5.305085 0.076296 0.267972
  H 5.186388 -2.777877 -4.541047
  H 5.186774 -1.159641 -5.186630
  H 3.105823 -0.627104 -3.889755
  H 3.105383 -2.270910 -3.234225
  H 2.881601 -1.550749 -6.198263
  H 1.560406 -2.089055 -5.168073
  H 2.881059 -3.189372 -5.544598
  H 7.445548 -1.000383 -2.437129
 29
 138.901273
  H 1.342361 0.384102 1.023572
  C 2.424966 0.395079 1.050687
  C 3.068155 0.887926 2.264971
  C 2.088102 1.328170 3.353279
  C 2.828590 1.830137 4.588741
  C 3.098766 -0.066646 -0.092279
  C 4.425089 -0.130350 -0.251410
  C 5.712921 -1.322065 -3.240827
  C 4.906710 -1.775363 -4.379047
  C 3.398988 -1.682965 -4.149312
  C 2.630254 -2.169903 -5.372250
  O 6.988309 -1.358049 -3.332945
  H 3.729137 1.726062 2.011456
  H 3.730844 0.110893 2.665964
  H 1.448294 0.489833 3.634582
  H 1.446460 2.124397 2.971755
  H 3.458416 1.048532 5.007768
  H 2.122371 2.140029 5.354722
  H 3.456513 2.684044 4.344299
  H 2.469132 -0.396498 -0.911939
  H 5.283640 0.104535 0.339665
  H 5.191467 -2.808982 -4.616191
  H 5.192247 -1.188720 -5.262213
  H 3.128745 -0.648020 -3.941270
  H 3.127750 -2.290817 -3.286577
  H 2.870455 -1.569452 -6.247024
  H 1.559179 -2.100798 -5.200812
  H 2.869303 -3.207770 -5.593969
  H 7.477149 -1.044203 -2.545218
