 19
 0.000000
  H 1.505416 0.168363 0.471356
  C 2.587960 0.149142 0.422948
  C 3.315599 0.619445 1.591807
  C 2.463337 1.086660 2.754804
  C 3.299971 1.560980 3.934792
  C 3.160848 -0.317640 -0.738666
  C 4.554071 -0.416175 -0.984490
  C 5.040345 -0.887989 -2.161350
  H 4.384900 -1.207207 -2.957842
  H 6.100847 -0.961259 -2.344111
  H 4.007623 1.420787 1.291567
  H 4.008305 -0.166249 1.929482
  H 1.807701 0.274735 3.083247
  H 1.807398 1.899909 2.430201
  H 3.935364 0.763613 4.313574
  H 2.655845 1.887168 4.746886
  H 3.935003 2.399021 3.656423
  H 2.503520 -0.638062 -1.536530
  H 5.246108 -0.107418 -0.213977
 19
 9.688933
  H 1.474215 0.186615 0.516707
  C 2.552954 0.170095 0.475020
  C 3.285677 0.633272 1.626194
  C 2.440994 1.103832 2.797570
  C 3.293507 1.574558 3.968626
  C 3.193047 -0.350559 -0.820654
  C 4.573483 -0.441721 -1.048192
  C 5.070754 -0.912925 -2.223364
  H 4.422602 -1.233734 -3.023529
  H 6.131012 -0.982687 -2.397407
  H 3.979806 1.432393 1.319403
  H 3.980515 -0.155364 1.957507
  H 1.786869 0.294660 3.132225
  H 1.786582 1.919399 2.479379
  H 3.929137 0.774140 4.340217
  H 2.659827 1.903534 4.787670
  H 3.928755 2.409828 3.682956
  H 2.533512 -0.668683 -1.612746
  H 5.257576 -0.130127 -0.270768
 19
 29.571258
  H 1.401968 0.183343 0.508349
  C 2.475734 0.184218 0.509579
  C 3.236708 0.636049 1.632246
  C 2.422058 1.116067 2.828288
  C 3.329108 1.573494 3.966002
  C 3.199246 -0.387622 -0.913100
  C 4.566368 -0.449698 -1.067615
  C 5.110478 -0.906380 -2.206716
  H 4.500529 -1.235454 -3.028120
  H 6.174238 -0.958140 -2.335232
  H 3.938600 1.423755 1.309769
  H 3.939625 -0.154942 1.943970
  H 1.775889 0.313717 3.186658
  H 1.775126 1.942836 2.532322
  H 3.964544 0.762291 4.312629
  H 2.732264 1.911670 4.808929
  H 3.963632 2.399714 3.654977
  H 2.526052 -0.698672 -1.687843
  H 5.211701 -0.128225 -0.264604
 19
 51.928223
  H 1.321502 0.187037 0.517724
  C 2.401115 0.204483 0.559936
  C 3.192949 0.639979 1.641774
  C 2.412165 1.131258 2.866358
  C 3.356938 1.577672 3.976186
  C 3.199774 -0.419857 -0.993296
  C 4.564293 -0.458208 -1.088148
  C 5.169723 -0.914028 -2.225808
  H 4.592180 -1.253193 -3.073880
  H 6.247051 -0.949095 -2.312080
  H 3.893251 1.421013 1.294307
  H 3.894495 -0.163615 1.930524
  H 1.764262 0.335786 3.241029
  H 1.763144 1.964270 2.587064
  H 3.992523 0.757942 4.303443
  H 2.788849 1.922596 4.836269
  H 3.991241 2.396974 3.645138
  H 2.496041 -0.721958 -1.746284
  H 5.174964 -0.127704 -0.261435
 19
 73.860459
  H 1.278692 0.197821 0.544692
  C 2.345448 0.222934 0.606151
  C 3.152957 0.653469 1.675771
  C 2.395320 1.148435 2.909049
  C 3.364843 1.587337 4.000040
  C 3.218301 -0.453976 -1.078064
  C 4.581107 -0.480586 -1.143873
  C 5.213429 -0.932041 -2.270885
  H 4.658486 -1.273567 -3.124932
  H 6.282959 -0.957812 -2.334095
  H 3.853279 1.427958 1.319192
  H 3.854341 -0.151743 1.953471
  H 1.751105 0.357340 3.293104
  H 1.750222 1.984745 2.639394
  H 3.999507 0.762889 4.315054
  H 2.815734 1.936507 4.870293
  H 3.998320 2.401344 3.656781
  H 2.506358 -0.750040 -1.816129
  H 5.174557 -0.145236 -0.305186
 19
 93.858614
  H 1.220887 0.208459 0.571421
  C 2.293529 0.241217 0.652113
  C 3.114293 0.665338 1.705953
  C 2.378330 1.167491 2.956344
  C 3.373402 1.598765 4.028326
  C 3.240648 -0.488224 -1.163045
  C 4.596395 -0.502829 -1.199371
  C 5.257808 -0.949438 -2.314604
  H 4.721689 -1.296847 -3.183237
  H 6.335239 -0.965316 -2.353474
  H 3.816141 1.434680 1.337546
  H 3.816957 -0.144525 1.971805
  H 1.735742 0.379111 3.352013
  H 1.735122 2.010052 2.696648
  H 4.007324 0.768826 4.331256
  H 2.843594 1.952420 4.909133
  H 4.006464 2.408108 3.672369
  H 2.513193 -0.780512 -1.891718
  H 5.170196 -0.163139 -0.350174
 19
 111.016528
  H 1.175344 0.221576 0.604426
  C 2.241346 0.259814 0.698936
  C 3.073267 0.678370 1.739072
  C 2.361622 1.186518 3.003678
  C 3.380444 1.609521 4.054801
  C 3.261747 -0.522200 -1.247648
  C 4.613468 -0.526125 -1.257431
  C 5.303063 -0.967828 -2.360789
  H 4.789940 -1.318311 -3.237257
  H 6.376011 -0.973892 -2.375212
  H 3.775371 1.441643 1.359608
  H 3.775920 -0.134864 1.992924
  H 1.722283 0.402681 3.409771
  H 1.721860 2.033064 2.754354
  H 4.013098 0.774723 4.345693
  H 2.870035 1.967250 4.945131
  H 4.012370 2.413792 3.686550
  H 2.524143 -0.808708 -1.962164
  H 5.169863 -0.182019 -0.397046
 19
 125.135203
  H 1.123292 0.235152 0.638624
  C 2.191974 0.277800 0.744198
  C 3.032557 0.692262 1.774318
  C 2.345217 1.206622 3.053872
  C 3.387289 1.622201 4.086053
  C 3.286269 -0.556490 -1.333601
  C 4.629661 -0.550369 -1.318141
  C 5.348684 -0.987258 -2.409326
  H 4.856696 -1.342878 -3.298318
  H 6.424992 -0.983206 -2.398295
  H 3.735199 1.450060 1.383951
  H 3.735635 -0.124672 2.016655
  H 1.707983 0.425783 3.470565
  H 1.707622 2.058323 2.814035
  H 4.018968 0.782592 4.365883
  H 2.895295 1.983811 4.985556
  H 4.018242 2.422177 3.706202
  H 2.535608 -0.838732 -2.037825
  H 5.167546 -0.202353 -0.447936
 19
 136.260370
  H 1.079472 0.252161 0.681109
  C 2.145821 0.296529 0.791012
  C 2.990984 0.707425 1.812488
  C 2.328554 1.227194 3.105204
  C 3.391080 1.635181 4.118155
  C 3.310587 -0.590829 -1.419481
  C 4.649408 -0.576230 -1.382730
  C 5.394941 -1.008191 -2.461498
  H 4.924962 -1.366958 -3.358045
  H 6.467641 -0.994583 -2.426651
  H 3.693712 1.459405 1.411780
  H 3.694054 -0.112588 2.043402
  H 1.694155 0.450194 3.531503
  H 1.693818 2.082726 2.874813
  H 4.021397 0.791374 4.387416
  H 2.916850 2.000143 5.025701
  H 4.020605 2.430810 3.727579
  H 2.548896 -0.867406 -2.109777
  H 5.171700 -0.224513 -0.503489
 19
 144.608153
  H 1.035959 0.270897 0.727948
  C 2.105553 0.314719 0.836549
  C 2.950661 0.724693 1.855859
  C 2.311127 1.249329 3.160441
  C 3.391119 1.651389 4.158289
  C 3.339228 -0.625990 -1.507347
  C 4.670742 -0.604711 -1.453664
  C 5.440943 -1.032237 -2.521452
  H 4.989586 -1.394782 -3.427619
  H 6.514459 -1.009834 -2.464481
  H 3.654033 1.471043 1.445942
  H 3.654268 -0.097653 2.076268
  H 1.678634 0.474963 3.595291
  H 1.678239 2.108845 2.937904
  H 4.020473 0.803925 4.419034
  H 2.931871 2.019222 5.072749
  H 4.019615 2.443755 3.758864
  H 2.565229 -0.897958 -2.186371
  H 5.178839 -0.250097 -0.567118
 19
 150.183704
  H 1.004450 0.296157 0.790881
  C 2.074981 0.335010 0.887086
  C 2.913080 0.745360 1.907373
  C 2.290892 1.272974 3.219485
  C 3.381031 1.670966 4.206877
  C 3.369625 -0.660529 -1.593779
  C 4.702447 -0.637594 -1.535548
  C 5.486071 -1.062284 -2.596117
  H 5.045895 -1.426271 -3.505984
  H 6.557878 -1.034979 -2.526691
  H 3.616901 1.486910 1.490580
  H 3.617183 -0.078229 2.119441
  H 1.660083 0.500687 3.659986
  H 1.659512 2.134770 3.002473
  H 4.009686 0.821409 4.462067
  H 2.931788 2.040475 5.125567
  H 4.008614 2.461087 3.801945
  H 2.587478 -0.928673 -2.263474
  H 5.204574 -0.281326 -0.644838
 19
 153.934522
  H 0.975801 0.321896 0.855090
  C 2.049333 0.355321 0.937625
  C 2.883016 0.769003 1.966135
  C 2.269846 1.297857 3.281738
  C 3.364501 1.694094 4.264312
  C 3.403887 -0.695127 -1.680690
  C 4.733772 -0.672284 -1.621947
  C 5.527906 -1.095708 -2.678937
  H 5.094378 -1.461345 -3.593114
  H 6.600589 -1.065167 -2.600962
  H 3.587899 1.508294 1.545691
  H 3.588411 -0.055321 2.173816
  H 1.639728 0.525938 3.724702
  H 1.638830 2.160878 3.066879
  H 3.993114 0.843536 4.517060
  H 2.919695 2.064314 5.185067
  H 3.991717 2.483492 3.856908
  H 2.614714 -0.960799 -2.344526
  H 5.231474 -0.314946 -0.728345
 19
 156.514564
  H 0.953815 0.351709 0.929641
  C 2.029321 0.378556 0.996018
  C 2.855478 0.793395 2.027463
  C 2.247291 1.322619 3.343420
  C 3.343755 1.718005 4.323608
  C 3.436292 -0.727935 -1.763086
  C 4.769674 -0.706897 -1.708419
  C 5.567066 -1.129259 -2.762405
  H 5.136346 -1.495113 -3.677003
  H 6.638880 -1.097327 -2.680916
  H 3.560594 1.530609 1.604923
  H 3.560884 -0.030947 2.232443
  H 1.617423 0.550944 3.787266
  H 1.616600 2.186076 3.129098
  H 3.972192 0.867075 4.575363
  H 2.900991 2.088695 5.245116
  H 3.970856 2.506838 3.915044
  H 2.639927 -0.990533 -2.419402
  H 5.267268 -0.349124 -0.813888
 19
 158.231222
  H 0.932199 0.380392 1.001072
  C 2.010093 0.401655 1.053625
  C 2.832253 0.820054 2.094034
  C 2.223858 1.349378 3.410117
  C 3.319297 1.745188 4.391243
  C 3.470931 -0.760773 -1.845471
  C 4.801538 -0.741575 -1.795098
  C 5.602803 -1.164033 -2.848700
  H 5.173417 -1.530742 -3.764934
  H 6.675390 -1.130993 -2.764694
  H 3.538424 1.556880 1.671157
  H 3.538695 -0.004336 2.298588
  H 1.593777 0.577162 3.853200
  H 1.592936 2.212656 3.194807
  H 3.947891 0.894463 4.643587
  H 2.875571 2.115788 5.312466
  H 3.946534 2.534271 3.983212
  H 2.668263 -1.020989 -2.495671
  H 5.298391 -0.383275 -0.899918
