 12
 0.000000
  H 1.395108 0.060245 0.264268
  C 2.465970 0.066421 0.121059
  C 3.305192 -0.002777 1.366459
  C 2.487737 -0.090894 2.649811
  H 3.143400 -0.141024 3.514232
  C 3.000605 0.127716 -1.084504
  H 2.459335 0.182857 -2.012134
  H 4.074053 0.132179 -1.200133
  H 3.951850 0.879704 1.413708
  H 3.961992 -0.875679 1.303054
  H 1.858766 -0.979227 2.643068
  H 1.845234 0.781455 2.755466
 12
 -0.468818
  H 1.445740 -0.273596 0.241510
  C 2.495902 -0.055576 0.122750
  C 3.328320 -0.113101 1.369813
  C 2.483624 -0.032244 2.638326
  H 3.115093 -0.075601 3.521016
  C 2.993321 0.227373 -1.064987
  H 2.405826 0.269930 -1.965448
  H 4.047609 0.433551 -1.188968
  H 4.049528 0.709917 1.350039
  H 3.900731 -1.048355 1.373433
  H 1.776977 -0.860964 2.681323
  H 1.921907 0.901300 2.663574
 12
 -0.807373
  H 1.506812 -0.587970 0.179965
  C 2.505339 -0.179693 0.110744
  C 3.330376 -0.221640 1.361598
  C 2.496356 0.038205 2.611506
  H 3.120279 0.001443 3.501797
  C 2.955915 0.328613 -1.015733
  H 2.405548 0.381083 -1.941637
  H 3.947931 0.754335 -1.066063
  H 4.125529 0.523829 1.275473
  H 3.803530 -1.205400 1.441825
  H 1.712980 -0.710360 2.710138
  H 2.029318 1.019595 2.558616
 12
 1.021771
  H 1.536524 -0.710389 0.087120
  C 2.505834 -0.230590 0.091378
  C 3.299306 -0.321211 1.353764
  C 2.526812 0.078398 2.602446
  H 3.159910 0.008260 3.483081
  C 2.954194 0.410730 -0.972802
  H 2.462633 0.364859 -1.931077
  H 3.789297 1.089629 -0.916007
  H 4.193276 0.289182 1.203891
  H 3.671172 -1.347610 1.456621
  H 1.668738 -0.575767 2.741344
  H 2.167688 1.100741 2.514841
 12
 8.767179
  H 1.415961 -0.548043 0.061142
  C 2.433031 -0.176848 0.086673
  C 3.242066 -0.344251 1.336328
  C 2.558077 0.059676 2.628557
  H 3.245208 -0.006108 3.468539
  C 3.000556 0.408655 -0.955813
  H 2.626361 0.340379 -1.968682
  H 3.762036 1.162236 -0.830439
  H 4.163769 0.203635 1.103177
  H 3.596450 -1.384607 1.382670
  H 1.719813 -0.605684 2.824570
  H 2.176666 1.070175 2.557071
 12
 26.731531
  H 1.309953 -0.407018 0.005090
  C 2.363671 -0.201455 0.050343
  C 3.154224 -0.360564 1.310365
  C 2.573545 0.048737 2.644452
  H 3.343390 0.042925 3.409558
  C 3.066324 0.383724 -0.922985
  H 2.800171 0.361573 -1.977937
  H 3.691360 1.241019 -0.717653
  H 4.111983 0.089593 0.946202
  H 3.587197 -1.365682 1.379297
  H 1.808431 -0.656067 2.943018
  H 2.137787 1.039414 2.596043
 12
 55.369765
  H 1.243630 -0.305357 0.043387
  C 2.310166 -0.141318 0.106655
  C 3.142377 -0.358500 1.312535
  C 2.584044 0.040716 2.655933
  H 3.338743 0.004879 3.437959
  C 3.098627 0.399357 -0.852327
  H 2.920698 0.213012 -1.913073
  H 3.668951 1.303526 -0.696957
  H 4.043664 0.042665 0.643102
  H 3.677589 -1.313977 1.350747
  H 1.788461 -0.652259 2.925125
  H 2.138941 1.027635 2.611604
 12
 76.698334
  H 1.210947 -0.173247 0.046391
  C 2.280990 -0.075783 0.151541
  C 3.050382 -0.315877 1.310725
  C 2.543294 0.007119 2.699954
  H 3.360286 0.000008 3.418096
  C 3.202468 0.340510 -0.827766
  H 3.066441 0.061515 -1.874355
  H 3.631205 1.330204 -0.750631
  H 4.083556 0.104827 0.341930
  H 3.651768 -1.218881 1.314016
  H 1.808259 -0.732951 3.019595
  H 2.070983 0.986445 2.721186
 12
 57.924845
  H 1.212000 -0.017822 0.114947
  C 2.280838 -0.040659 0.221470
  C 3.004345 -0.277782 1.350669
  C 2.497167 -0.041264 2.751956
  H 3.340639 0.006458 3.442679
  C 3.277546 0.326275 -0.820849
  H 3.138411 -0.057440 -1.819388
  H 3.658435 1.348069 -0.818398
  H 4.093822 0.131764 -0.002361
  H 3.651534 -1.137819 1.331663
  H 1.810200 -0.826702 3.079307
  H 1.973940 0.895448 2.803039
 12
 32.212254
  H 1.293535 0.045789 0.163224
  C 2.377158 0.055271 0.251913
  C 3.016573 -0.272198 1.393365
  C 2.454279 -0.050863 2.773396
  H 3.255613 -0.090298 3.512801
  C 3.333724 0.308752 -0.849941
  H 3.074439 -0.050053 -1.840152
  H 3.507657 1.390628 -0.912244
  H 4.256173 0.078532 -0.280877
  H 3.706349 -1.099306 1.378631
  H 1.748968 -0.838967 3.058621
  H 1.942995 0.905959 2.848164
 12
 15.802188
  H 1.378944 0.300563 0.236259
  C 2.445917 0.150512 0.314643
  C 3.053276 -0.252946 1.434346
  C 2.412450 -0.102580 2.790328
  H 3.180790 -0.081966 3.558932
  C 3.330275 0.328810 -0.878131
  H 3.029922 -0.200513 -1.775419
  H 3.480211 1.394412 -1.088755
  H 4.294731 0.086373 -0.426562
  H 3.782441 -1.051862 1.384758
  H 1.738915 -0.936776 3.019876
  H 1.838221 0.816267 2.840284
 12
 2.611028
  H 1.458792 0.420682 0.263682
  C 2.513705 0.193615 0.333080
  C 3.060409 -0.217407 1.471391
  C 2.367255 -0.132918 2.799467
  H 3.101060 -0.023167 3.595798
  C 3.340773 0.308940 -0.904808
  H 2.904095 -0.150023 -1.785153
  H 3.504415 1.370788 -1.110392
  H 4.326733 -0.069019 -0.646513
  H 3.910370 -0.885431 1.456762
  H 1.789624 -1.036752 3.005852
  H 1.689052 0.716512 2.825957
 12
 -4.480350
  H 1.612639 0.736939 0.350770
  C 2.594635 0.279725 0.372273
  C 3.074110 -0.197784 1.508522
  C 2.321981 -0.198047 2.802699
  H 2.987493 0.049759 3.629286
  C 3.347948 0.301123 -0.917446
  H 2.779098 -0.171957 -1.716475
  H 3.539592 1.334030 -1.213565
  H 4.305232 -0.201347 -0.799652
  H 3.993670 -0.768940 1.510069
  H 1.906101 -1.188147 3.000238
  H 1.503785 0.520467 2.778405
 12
 -4.651262
  H 1.677766 0.875009 0.376613
  C 2.601542 0.303727 0.374095
  C 3.028796 -0.262737 1.488987
  C 2.303601 -0.207284 2.816822
  H 3.012125 0.005801 3.628421
  C 3.367360 0.309652 -0.928650
  H 2.895202 -0.344029 -1.668055
  H 3.391911 1.319510 -1.349056
  H 4.404997 -0.025731 -0.764668
  H 3.937936 -0.848026 1.479344
  H 1.842788 -1.182193 3.048229
  H 1.502260 0.552120 2.803041
 12
 -5.251974
  H 1.708520 0.910865 0.389649
  C 2.633019 0.346880 0.390769
  C 3.036077 -0.250911 1.499031
  C 2.298483 -0.222162 2.796549
  H 2.966013 0.067683 3.607482
  C 3.363138 0.305919 -0.912952
  H 2.821918 -0.314702 -1.628854
  H 3.441508 1.306769 -1.337376
  H 4.361813 -0.101588 -0.786763
  H 3.960792 -0.815511 1.501533
  H 1.908377 -1.213589 3.029552
  H 1.466625 0.476166 2.756504
