 13
 0.000000
  C 0.987342 0.144186 0.411175
  C 2.427248 0.104020 0.311127
  H 3.028973 0.439884 1.147239
  C 3.082344 -0.349937 -0.819290
  C 4.491862 -0.388996 -0.918647
  C 5.121034 -0.839730 -2.041236
  H 4.552436 -1.182038 -2.893010
  H 6.195680 -0.869030 -2.114622
  H 0.626894 0.525199 1.360371
  H 0.566367 -0.849992 0.216620
  H 0.566516 0.728306 -0.416626
  H 2.503345 -0.691901 -1.669290
  H 5.076327 -0.048952 -0.073176
 13
 4.015084
  C 0.967097 0.132841 0.383080
  C 2.389822 0.094738 0.288158
  H 2.994140 0.431163 1.125533
  C 3.068559 -0.355973 -0.834479
  C 4.478131 -0.388070 -0.916552
  C 5.127727 -0.833510 -2.025593
  H 4.585653 -1.180832 -2.889597
  H 6.202066 -0.853903 -2.076601
  H 0.862191 0.527263 1.365864
  H 0.496048 -0.855249 0.239727
  H 0.496289 0.748172 -0.403486
  H 2.501710 -0.700082 -1.690172
  H 5.048407 -0.044565 -0.062813
 13
 13.806613
  C 0.936296 0.125575 0.364906
  C 2.364091 0.087571 0.270352
  H 2.970250 0.421751 1.102174
  C 3.065779 -0.360920 -0.846897
  C 4.463478 -0.385142 -0.909386
  C 5.132668 -0.828106 -2.012042
  H 4.604970 -1.178954 -2.884571
  H 6.207631 -0.842469 -2.048147
  H 1.048775 0.516415 1.339044
  H 0.447856 -0.832988 0.266128
  H 0.448396 0.750455 -0.368818
  H 2.512822 -0.708615 -1.711363
  H 5.018192 -0.038692 -0.048635
 13
 26.462290
  C 0.908157 0.121184 0.353691
  C 2.346158 0.088022 0.272106
  H 2.968556 0.419073 1.095797
  C 3.053741 -0.359703 -0.842707
  C 4.467462 -0.382721 -0.903273
  C 5.138032 -0.823661 -2.001244
  H 4.610421 -1.176124 -2.877444
  H 6.218986 -0.836820 -2.035019
  H 1.186149 0.501665 1.302539
  H 0.406391 -0.848225 0.280697
  H 0.407112 0.772474 -0.368626
  H 2.502809 -0.707987 -1.707917
  H 5.021951 -0.035383 -0.041103
 13
 39.853987
  C 0.879934 0.115796 0.336863
  C 2.341810 0.086477 0.273313
  H 2.981374 0.418444 1.089484
  C 3.053418 -0.361881 -0.835343
  C 4.466114 -0.379114 -0.894633
  C 5.138033 -0.818221 -1.991370
  H 4.613186 -1.170390 -2.867261
  H 6.212879 -0.831703 -2.023229
  H 1.289429 0.481933 1.253189
  H 0.381099 -0.846154 0.289237
  H 0.379478 0.785513 -0.353101
  H 2.507188 -0.712049 -1.700942
  H 5.016227 -0.031269 -0.035007
 13
 49.296337
  C 0.864128 0.112240 0.303134
  C 2.352501 0.078085 0.276650
  H 3.009290 0.431352 1.089487
  C 3.040808 -0.382711 -0.808307
  C 4.468058 -0.373767 -0.882709
  C 5.123000 -0.805146 -1.978129
  H 4.593891 -1.153405 -2.853852
  H 6.202920 -0.832103 -2.014466
  H 1.368737 0.465335 1.198086
  H 0.400403 -0.862589 0.246618
  H 0.353575 0.828402 -0.322738
  H 2.495467 -0.744782 -1.673115
  H 5.019954 -0.017518 -0.026703
 13
 53.649706
  C 0.852835 0.107805 0.262365
  C 2.368781 0.078070 0.297040
  H 3.019106 0.449241 1.091117
  C 3.044771 -0.405558 -0.779991
  C 4.477889 -0.369423 -0.875760
  C 5.119460 -0.796149 -1.974587
  H 4.586357 -1.147237 -2.848531
  H 6.186525 -0.831696 -2.016913
  H 1.422069 0.452833 1.161877
  H 0.407496 -0.876167 0.181418
  H 0.319721 0.878199 -0.270139
  H 2.504200 -0.784122 -1.629225
  H 5.025184 -0.002896 -0.035511
 13
 57.178923
  C 0.857464 0.101684 0.228595
  C 2.381727 0.078450 0.319737
  H 3.037266 0.473689 1.105759
  C 3.043654 -0.419689 -0.753194
  C 4.471536 -0.366451 -0.869815
  C 5.100968 -0.793524 -1.971505
  H 4.566017 -1.150470 -2.829143
  H 6.180153 -0.816366 -2.030933
  H 1.466316 0.423662 1.132470
  H 0.424996 -0.874486 0.113815
  H 0.322382 0.913450 -0.245404
  H 2.489261 -0.824626 -1.606546
  H 5.034496 0.021197 -0.024946
 13
 59.645676
  C 0.849265 0.106510 0.201621
  C 2.386132 0.075981 0.334952
  H 3.046298 0.500431 1.108988
  C 3.047933 -0.436559 -0.734258
  C 4.475199 -0.359555 -0.870396
  C 5.098257 -0.789406 -1.972793
  H 4.555760 -1.160969 -2.827045
  H 6.175539 -0.807437 -2.039768
  H 1.499613 0.393104 1.115927
  H 0.407308 -0.873693 0.048197
  H 0.332026 0.943445 -0.206098
  H 2.505658 -0.851889 -1.558223
  H 5.045519 0.045295 -0.032401
 13
 62.010504
  C 0.850482 0.105298 0.182007
  C 2.391681 0.078901 0.348801
  H 3.056716 0.518789 1.105045
  C 3.051358 -0.441771 -0.716217
  C 4.478134 -0.365423 -0.858550
  C 5.099044 -0.800014 -1.961448
  H 4.553008 -1.165381 -2.815342
  H 6.168693 -0.774855 -2.049109
  H 1.532493 0.371153 1.103251
  H 0.415906 -0.867301 0.006144
  H 0.339044 0.974035 -0.183071
  H 2.497268 -0.880140 -1.548157
  H 5.044089 0.053920 -0.046451
 13
 63.837916
  C 0.847937 0.111112 0.160901
  C 2.394269 0.075322 0.355466
  H 3.062813 0.541444 1.099742
  C 3.054913 -0.458031 -0.706292
  C 4.478657 -0.371983 -0.857012
  C 5.097742 -0.807379 -1.960388
  H 4.552869 -1.165298 -2.809541
  H 6.173506 -0.750139 -2.065116
  H 1.562938 0.348847 1.096024
  H 0.413534 -0.848216 -0.040443
  H 0.336824 1.003656 -0.153386
  H 2.509392 -0.910981 -1.516907
  H 5.048250 0.070758 -0.050601
 13
 63.886321
  C 0.848426 0.121570 0.141316
  C 2.398065 0.073906 0.359581
  H 3.061750 0.576996 1.084392
  C 3.062555 -0.451975 -0.707209
  C 4.481104 -0.338247 -0.870684
  C 5.103285 -0.782718 -1.970337
  H 4.565129 -1.230562 -2.782003
  H 6.179199 -0.763901 -2.057785
  H 1.593175 0.286703 1.106055
  H 0.420150 -0.818454 -0.139506
  H 0.317681 1.038463 -0.049547
  H 2.518460 -0.932090 -1.506819
  H 5.048210 0.108212 -0.070995
 13
 65.172326
  C 0.853446 0.129691 0.120884
  C 2.401599 0.074646 0.370311
  H 3.071309 0.599892 1.077455
  C 3.067830 -0.459996 -0.694895
  C 4.481043 -0.336230 -0.867805
  C 5.101721 -0.781768 -1.968743
  H 4.560399 -1.230156 -2.778982
  H 6.176861 -0.760906 -2.060913
  H 1.618225 0.266253 1.111159
  H 0.425227 -0.808157 -0.186960
  H 0.330206 1.049544 -0.025028
  H 2.519190 -0.954773 -1.488062
  H 5.056053 0.119921 -0.070172
 13
 65.077040
  C 0.864440 0.136592 0.096603
  C 2.407874 0.076437 0.382827
  H 3.067407 0.651983 1.059620
  C 3.077094 -0.481821 -0.675671
  C 4.485095 -0.340581 -0.862222
  C 5.103488 -0.786074 -1.966557
  H 4.554700 -1.196728 -2.797020
  H 6.174474 -0.765362 -2.060088
  H 1.641657 0.240358 1.118574
  H 0.441491 -0.786689 -0.237175
  H 0.330763 1.066283 0.004246
  H 2.530041 -0.998229 -1.454945
  H 5.059711 0.114587 -0.072630
