 20
 0.000000
  C 1.007473 -0.071520 0.047655
  C 2.503753 -0.082626 0.025853
  C 3.219079 -0.595573 -0.981150
  C 4.657197 -0.605914 -1.001448
  C 5.377771 -1.121152 -2.012944
  C 6.816198 -1.130733 -2.031751
  C 7.534712 -1.642484 -3.036412
  C 9.024703 -1.661698 -3.074124
  H 0.645529 0.394752 0.963018
  H 0.611833 -1.086286 0.009051
  H 0.611833 0.493894 -0.795878
  H 3.004395 0.352737 0.880546
  H 2.705654 -1.028851 -1.831735
  H 5.161182 -0.170943 -0.147532
  H 4.872886 -1.555913 -2.866455
  H 7.322685 -0.696215 -1.178720
  H 7.036143 -2.078788 -3.892936
  H 9.458353 -1.208499 -2.184423
  H 9.384011 -1.115744 -3.947834
  H 9.384010 -2.689426 -3.146230
 20
 0.901404
  C 1.011050 0.016572 -0.020259
  C 2.501844 -0.078111 0.021415
  C 3.233778 -0.662921 -0.931795
  C 4.661263 -0.737945 -0.917817
  C 5.374758 -1.293049 -1.921362
  C 6.812552 -1.232896 -1.977380
  C 7.529328 -1.631122 -3.031614
  C 9.012057 -1.542959 -3.124091
  H 0.634165 0.581698 0.828483
  H 0.564760 -0.977496 0.006915
  H 0.679531 0.507375 -0.935328
  H 2.993930 0.354185 0.882721
  H 2.764938 -1.024597 -1.825595
  H 5.171071 -0.318077 -0.060010
  H 4.865711 -1.831125 -2.712606
  H 7.317889 -0.806121 -1.117893
  H 7.029131 -2.056332 -3.893585
  H 9.443767 -1.149348 -2.206010
  H 9.299634 -0.891648 -3.951266
  H 9.437228 -2.527651 -3.317522
 20
 1.506621
  C 1.001126 0.022209 -0.070955
  C 2.487232 -0.094545 0.033860
  C 3.253429 -0.679035 -0.890783
  C 4.688137 -0.761600 -0.829505
  C 5.411237 -1.297594 -1.829268
  C 6.837610 -1.242925 -1.943230
  C 7.511907 -1.627959 -3.031634
  C 8.987488 -1.530138 -3.190843
  H 0.594361 0.601202 0.752795
  H 0.540413 -0.965712 -0.056730
  H 0.715599 0.501884 -1.009062
  H 2.952664 0.337134 0.916319
  H 2.821119 -1.021307 -1.823010
  H 5.179674 -0.357645 0.047788
  H 4.898194 -1.829716 -2.626978
  H 7.378019 -0.836892 -1.093918
  H 6.973878 -2.025898 -3.882200
  H 9.454731 -1.146756 -2.287260
  H 9.234179 -0.867020 -4.022185
  H 9.409868 -2.509023 -3.419192
 20
 8.858436
  C 1.036711 0.094037 -0.232110
  C 2.498412 -0.072450 0.021436
  C 3.305022 -0.777435 -0.775077
  C 4.729451 -0.898341 -0.623122
  C 5.437365 -1.421451 -1.643917
  C 6.843989 -1.261445 -1.881231
  C 7.456707 -1.667190 -2.996992
  C 8.892649 -1.428576 -3.309318
  H 0.618457 0.885318 0.382196
  H 0.507804 -0.834530 -0.002008
  H 0.845405 0.326620 -1.281590
  H 2.919292 0.480643 0.852295
  H 2.991603 -1.080118 -1.771302
  H 5.203845 -0.560130 0.287848
  H 4.947388 -2.128633 -2.301859
  H 7.410530 -0.727975 -1.125574
  H 6.892482 -2.189195 -3.754896
  H 9.380754 -0.873217 -2.509997
  H 8.988887 -0.864326 -4.243730
  H 9.413382 -2.376517 -3.447537
 20
 22.400426
  C 1.059583 0.113589 -0.329532
  C 2.533771 0.057250 -0.064446
  C 3.360694 -0.775050 -0.720846
  C 4.774204 -0.909354 -0.516605
  C 5.431879 -1.524335 -1.532079
  C 6.816161 -1.284207 -1.852666
  C 7.427811 -1.767446 -2.940620
  C 8.794819 -1.389469 -3.384382
  H 0.601460 0.947062 0.182579
  H 0.588140 -0.805502 0.039537
  H 0.839237 0.186144 -1.395365
  H 2.932674 0.764589 0.649699
  H 3.170047 -1.102403 -1.742785
  H 5.263664 -0.541855 0.369489
  H 5.006933 -2.420683 -1.964656
  H 7.339328 -0.566133 -1.223967
  H 6.925481 -2.511504 -3.545826
  H 9.257446 -0.694325 -2.680544
  H 8.763987 -0.930229 -4.376472
  H 9.428950 -2.282464 -3.453211
 20
 41.278858
  C 1.107274 0.065140 -0.476272
  C 2.556465 0.119669 -0.134235
  C 3.466021 -0.729294 -0.638217
  C 4.825014 -0.963792 -0.303037
  C 5.463867 -1.560214 -1.391125
  C 6.808669 -1.305636 -1.780608
  C 7.337316 -1.740451 -2.941680
  C 8.680532 -1.344638 -3.456053
  H 0.559463 0.868759 0.012273
  H 0.690820 -0.881532 -0.145550
  H 0.946846 0.142126 -1.552808
  H 2.865304 0.869367 0.588762
  H 3.476919 -0.999915 -1.723645
  H 5.269964 -0.813683 0.656660
  H 5.037143 -2.467184 -1.794180
  H 7.380592 -0.604839 -1.184373
  H 6.778098 -2.417269 -3.567793
  H 9.254955 -0.822606 -2.693323
  H 8.575479 -0.696736 -4.327989
  H 9.245036 -2.224109 -3.771166
 20
 62.148196
  C 1.264513 0.058800 -0.658332
  C 2.644399 0.122488 -0.086687
  C 3.586116 -0.777421 -0.431100
  C 4.883525 -1.144445 -0.080668
  C 5.414590 -1.679818 -1.270735
  C 6.700079 -1.303191 -1.767069
  C 7.170217 -1.625472 -2.978743
  C 8.515863 -1.252483 -3.498658
  H 0.727856 1.000397 -0.491239
  H 0.701343 -0.747896 -0.191933
  H 1.281578 -0.130259 -1.726650
  H 2.942496 1.073085 0.326077
  H 3.656288 -1.159068 -1.498979
  H 5.384409 -1.065984 0.870462
  H 5.064171 -2.646824 -1.590698
  H 7.294009 -0.664723 -1.116985
  H 6.533319 -2.168574 -3.667638
  H 9.089075 -0.704971 -2.745933
  H 8.428097 -0.627014 -4.395717
  H 9.067105 -2.140791 -3.775963
 20
 73.700615
  C 1.326291 0.030253 -0.737141
  C 2.682479 0.187446 -0.115350
  C 3.677640 -0.681022 -0.287314
  C 4.879909 -1.174882 0.044667
  C 5.353297 -1.649729 -1.253454
  C 6.661623 -1.309543 -1.763273
  C 7.111097 -1.643028 -2.976237
  C 8.436568 -1.244655 -3.526261
  H 0.738269 0.936185 -0.613111
  H 0.785831 -0.796874 -0.274173
  H 1.402142 -0.186013 -1.802931
  H 2.897879 1.147019 0.341272
  H 4.017378 -1.069997 -1.578758
  H 5.373771 -1.240843 0.998064
  H 4.959757 -2.600696 -1.595358
  H 7.270023 -0.681108 -1.123202
  H 6.491732 -2.244845 -3.629515
  H 9.016144 -0.695653 -2.788969
  H 8.306882 -0.615776 -4.408988
  H 9.000581 -2.125502 -3.834559
 20
 56.527208
  C 1.305146 0.051007 -0.650933
  C 2.711022 0.223364 -0.120220
  C 3.659164 -0.677084 -0.205518
  C 4.783632 -1.287490 0.032063
  C 5.288371 -1.651880 -1.359438
  C 6.623887 -1.279071 -1.818082
  C 7.114046 -1.598618 -3.013836
  C 8.480780 -1.238249 -3.486898
  H 0.758320 0.986510 -0.598625
  H 0.758255 -0.702785 -0.070375
  H 1.320602 -0.287966 -1.685556
  H 2.975174 1.218831 0.224420
  H 4.313401 -1.090830 -1.782780
  H 5.257205 -1.513398 0.971277
  H 4.899610 -2.580109 -1.783950
  H 7.209603 -0.678550 -1.134480
  H 6.505090 -2.145048 -3.714290
  H 9.029395 -0.724417 -2.717815
  H 8.426994 -0.603624 -4.378068
  H 9.034140 -2.144328 -3.760429
 20
 37.591875
  C 1.295402 0.044282 -0.527844
  C 2.705376 0.283884 -0.061865
  C 3.695371 -0.558128 -0.176467
  C 4.751415 -1.310474 -0.140493
  C 5.173601 -1.659414 -1.549001
  C 6.577131 -1.332284 -1.891613
  C 7.155158 -1.614623 -3.044579
  C 8.555518 -1.239322 -3.411514
  H 0.686701 0.937147 -0.388692
  H 0.832022 -0.774611 0.017033
  H 1.294118 -0.214482 -1.586463
  H 2.938748 1.299494 0.260409
  H 4.343672 -1.042122 -2.001488
  H 5.286685 -1.603268 0.735872
  H 4.820537 -2.645762 -1.876543
  H 7.088187 -0.698911 -1.173647
  H 6.621212 -2.199280 -3.782430
  H 9.075352 -0.790977 -2.570273
  H 8.549376 -0.533874 -4.241740
  H 9.112377 -2.114461 -3.730027
 20
 23.908949
  C 1.209340 0.000483 -0.295003
  C 2.652339 0.334374 -0.023054
  C 3.647272 -0.477021 -0.227654
  C 4.654247 -1.283245 -0.362712
  C 5.133425 -1.497372 -1.775682
  C 6.572614 -1.206706 -2.010426
  C 7.252238 -1.613560 -3.074082
  C 8.704547 -1.355604 -3.310128
  H 0.609419 0.904412 -0.320013
  H 0.806362 -0.663869 0.477635
  H 1.112827 -0.507082 -1.251803
  H 2.869910 1.371123 0.211876
  H 4.427260 -0.840935 -2.307739
  H 5.172238 -1.743221 0.465278
  H 4.841435 -2.486768 -2.154405
  H 7.070963 -0.641166 -1.229633
  H 6.750403 -2.172968 -3.845767
  H 9.149388 -0.835474 -2.471451
  H 8.841205 -0.748973 -4.205663
  H 9.236112 -2.303262 -3.466940
 20
 18.486840
  C 1.154771 -0.013906 -0.116250
  C 2.606579 0.371746 -0.041631
  C 3.590301 -0.430761 -0.314989
  C 4.570362 -1.237330 -0.579357
  C 5.111421 -1.406580 -1.972481
  C 6.607045 -1.287967 -2.039150
  C 7.326668 -1.548955 -3.117916
  C 8.810276 -1.415274 -3.200698
  H 0.522058 0.848672 0.071024
  H 0.924436 -0.779589 0.622221
  H 0.914840 -0.417621 -1.097904
  H 2.822232 1.394697 0.239851
  H 4.631027 -0.644209 -2.595376
  H 5.030441 -1.829415 0.200364
  H 4.791003 -2.375500 -2.372368
  H 7.096604 -0.945963 -1.135774
  H 6.838791 -1.886456 -4.023293
  H 9.231057 -1.132421 -2.237306
  H 9.078868 -0.657031 -3.935607
  H 9.258978 -2.355112 -3.519578
 20
 18.518178
  C 1.100779 -0.160215 -0.006085
  C 2.504825 0.381330 -0.046020
  C 3.547196 -0.315385 -0.383260
  C 4.593917 -1.022470 -0.682609
  C 5.153571 -1.192441 -2.067613
  C 6.654156 -1.276232 -2.072703
  C 7.379934 -1.530782 -3.147729
  C 8.871577 -1.596764 -3.168243
  H 0.384665 0.646623 0.127175
  H 0.988172 -0.861425 0.821286
  H 0.864738 -0.691793 -0.926710
  H 2.627630 1.423905 0.221836
  H 4.828076 -0.362178 -2.701550
  H 5.120675 -1.552903 0.103059
  H 4.738800 -2.107469 -2.507931
  H 7.146032 -1.103681 -1.123566
  H 6.892171 -1.704567 -4.099450
  H 9.277408 -1.561189 -2.159733
  H 9.277035 -0.757423 -3.734919
  H 9.206037 -2.513556 -3.652747
