 23
 0.000000
  C 0.999132 0.128035 0.369612
  C 2.469404 0.144110 0.410569
  C 3.224889 0.618508 1.590681
  C 2.425150 1.103464 2.796369
  C 3.363169 1.551817 3.913314
  C 3.139764 -0.310150 -0.718797
  C 4.524575 -0.375732 -0.883735
  C 5.094224 -0.843064 -2.048275
  H 4.487178 -1.178032 -2.880219
  O 6.370255 -0.928446 -2.264723
  H 0.540751 0.494204 1.279639
  H 0.645662 -0.885984 0.174875
  H 0.646223 0.725196 -0.472958
  H 3.885602 1.430509 1.268178
  H 3.885082 -0.191182 1.920147
  H 1.787972 0.302706 3.175598
  H 1.788756 1.944469 2.515804
  H 3.998275 0.732238 4.241980
  H 2.792179 1.896969 4.771626
  H 3.999075 2.370276 3.583739
  H 2.536711 -0.645264 -1.551804
  H 5.204583 -0.062308 -0.104967
  H 6.918505 -0.624577 -1.512619
 23
 5.420345
  C 0.971774 0.212670 0.357761
  C 2.442973 0.208865 0.391854
  C 3.205869 0.664103 1.573661
  C 2.413602 1.052283 2.823665
  C 3.359519 1.476199 3.944440
  C 3.108385 -0.257254 -0.738375
  C 4.494642 -0.349866 -0.883646
  C 5.114192 -1.047849 -1.898522
  H 4.587401 -1.728255 -2.551066
  O 6.393729 -1.031130 -2.108487
  H 0.521225 0.580254 1.271754
  H 0.603137 -0.795079 0.150574
  H 0.624850 0.816985 -0.478770
  H 3.812272 1.529109 1.265337
  H 3.925673 -0.116690 1.848104
  H 1.815917 0.206000 3.167617
  H 1.743440 1.883331 2.601611
  H 4.042300 0.674597 4.201742
  H 2.796232 1.734638 4.838262
  H 3.945334 2.349496 3.651764
  H 2.509988 -0.541021 -1.586768
  H 5.194185 0.187291 -0.268552
  H 6.974433 -0.292556 -1.844151
 23
 25.421318
  C 0.925189 0.229090 0.369520
  C 2.397941 0.203476 0.382437
  C 3.185814 0.653102 1.545874
  C 2.421949 1.053198 2.809747
  C 3.392096 1.431559 3.925513
  C 3.042421 -0.249629 -0.755247
  C 4.423586 -0.306875 -0.917365
  C 5.150914 -1.102504 -1.793402
  H 4.823850 -1.992857 -2.315144
  O 6.418538 -0.879039 -1.915435
  H 0.492951 0.538917 1.316077
  H 0.535867 -0.750360 0.087387
  H 0.576520 0.902248 -0.414339
  H 3.795988 1.504039 1.225585
  H 3.892910 -0.139089 1.804572
  H 1.804010 0.220809 3.149354
  H 1.778270 1.905302 2.596678
  H 4.039036 0.593053 4.178405
  H 2.846698 1.712095 4.825120
  H 4.012850 2.274697 3.634102
  H 2.437555 -0.489496 -1.621514
  H 5.206344 0.322025 -0.501536
  H 7.128190 -0.235576 -2.041578
 23
 39.152166
  C 0.909581 0.174744 0.395134
  C 2.390165 0.213091 0.379176
  C 3.177937 0.636624 1.554051
  C 2.411581 1.003658 2.824839
  C 3.375919 1.478411 3.899140
  C 3.034276 -0.171060 -0.795841
  C 4.411435 -0.284572 -0.947389
  C 5.134264 -1.030584 -1.868557
  H 4.800201 -1.812468 -2.542689
  O 6.408111 -0.861063 -1.794915
  H 0.494432 0.469616 1.362214
  H 0.554434 -0.815749 0.150899
  H 0.508421 0.854902 -0.365017
  H 3.773454 1.505958 1.249694
  H 3.923729 -0.127850 1.793073
  H 1.843562 0.148282 3.200006
  H 1.739170 1.833894 2.614797
  H 4.081500 0.691874 4.156124
  H 2.833415 1.767755 4.800406
  H 3.944437 2.339711 3.550838
  H 2.427011 -0.347134 -1.669760
  H 5.266855 0.220381 -0.487709
  H 7.302972 -0.501154 -1.910920
 23
 63.657396
  C 0.882222 0.228768 0.374018
  C 2.362936 0.173608 0.365275
  C 3.173033 0.611502 1.498096
  C 2.424469 1.010598 2.833781
  C 3.444318 1.444862 3.905089
  C 2.962313 -0.205186 -0.810016
  C 4.314607 -0.260006 -0.971926
  C 5.151258 -1.071188 -1.797997
  H 5.088835 -1.987297 -2.358086
  O 6.348037 -0.697400 -1.681190
  H 0.459217 0.584620 1.350603
  H 0.451896 -0.775678 0.102161
  H 0.526089 0.859226 -0.413879
  H 3.755793 1.474294 1.190604
  H 3.872677 -0.187279 1.728683
  H 1.846601 0.151560 3.213376
  H 1.748814 1.812513 2.632693
  H 4.136978 0.641716 4.123947
  H 2.942898 1.706476 4.832331
  H 3.988946 2.328264 3.588830
  H 2.343736 -0.381042 -1.656769
  H 5.262439 0.258394 -0.676921
  H 7.288750 -0.349788 -1.864857
 23
 85.773891
  C 0.812569 0.269879 0.386132
  C 2.287662 0.209704 0.322542
  C 3.153044 0.620007 1.458419
  C 2.474060 0.998163 2.771438
  C 3.510072 1.375728 3.825535
  C 2.868579 -0.247294 -0.839268
  C 4.226746 -0.393898 -1.030016
  C 5.114485 -1.139642 -1.666544
  H 5.139437 -2.102606 -2.143230
  O 6.355933 -0.496455 -1.503137
  H 0.447912 0.614267 1.346153
  H 0.388814 -0.716642 0.192604
  H 0.432862 0.928351 -0.395180
  H 3.764390 1.468224 1.133575
  H 3.862017 -0.192480 1.649623
  H 1.874917 0.162778 3.138756
  H 1.800686 1.843985 2.619288
  H 4.187802 0.549676 4.027292
  H 3.012908 1.634756 4.758411
  H 4.082284 2.246350 3.514184
  H 2.224476 -0.414516 -1.697095
  H 5.536127 0.290009 -0.834715
  H 7.266940 -0.159430 -1.583917
 23
 83.300148
  C 0.755491 0.311314 0.410320
  C 2.255334 0.200923 0.345997
  C 3.137953 0.580796 1.462331
  C 2.467576 1.005049 2.772532
  C 3.498164 1.360956 3.817326
  C 2.833726 -0.286951 -0.843825
  C 4.199183 -0.467873 -1.060540
  C 5.127091 -1.168190 -1.609117
  H 5.268780 -2.140472 -2.006286
  O 6.389040 -0.435396 -1.501902
  H 0.380876 0.693816 1.387769
  H 0.282614 -0.651961 0.199253
  H 0.413608 1.002028 -0.390561
  H 3.759838 1.384384 1.119835
  H 3.809600 -0.271206 1.665816
  H 1.830863 0.169324 3.148305
  H 1.839970 1.854287 2.609510
  H 4.158559 0.512233 4.043144
  H 3.014816 1.639939 4.746695
  H 4.103707 2.212395 3.463695
  H 2.153598 -0.451388 -1.693718
  H 5.725644 0.259328 -0.968084
  H 7.256258 0.014406 -1.628025
 23
 73.249738
  C 0.731482 0.377682 0.299095
  C 2.216484 0.222547 0.276447
  C 3.093718 0.497502 1.444759
  C 2.398689 0.846869 2.766306
  C 3.421351 1.078440 3.870606
  C 2.814070 -0.194930 -0.896411
  C 4.184730 -0.379962 -1.098929
  C 5.234119 -0.962958 -1.548756
  H 5.476328 -1.964701 -1.889954
  O 6.499838 -0.143253 -1.379426
  H 0.363132 0.688280 1.266119
  H 0.261529 -0.573449 0.018274
  H 0.404953 1.113281 -0.431139
  H 3.764436 1.319943 1.178446
  H 3.735001 -0.373975 1.604656
  H 1.731839 0.034229 3.053917
  H 1.801716 1.751224 2.660492
  H 4.025430 0.185486 4.021908
  H 2.933036 1.312210 4.808143
  H 4.080727 1.911244 3.625281
  H 2.206819 -0.330524 -1.787488
  H 5.939373 0.509169 -0.854230
  H 7.304771 0.402546 -1.506948
 23
 63.874348
  C 0.736239 0.360644 0.332477
  C 2.213716 0.216546 0.284953
  C 3.091162 0.526132 1.452891
  C 2.406027 0.866809 2.774479
  C 3.441584 1.152968 3.860427
  C 2.797367 -0.230729 -0.893847
  C 4.125171 -0.473606 -1.091575
  C 5.175114 -1.078106 -1.504859
  H 5.422229 -2.083164 -1.766647
  O 6.482433 -0.277268 -1.385841
  H 0.380314 0.707065 1.298064
  H 0.262337 -0.596054 0.115589
  H 0.400252 1.061845 -0.436219
  H 3.740974 1.372588 1.178471
  H 3.754827 -0.327714 1.618345
  H 1.780514 0.036774 3.095061
  H 1.768493 1.747707 2.662436
  H 4.064120 0.277644 4.043026
  H 2.949230 1.414207 4.794390
  H 4.082031 1.981479 3.576611
  H 2.168762 -0.324829 -1.771691
  H 6.006555 0.418134 -0.891097
  H 7.218639 0.254023 -1.771426
 23
 52.101789
  C 0.745859 0.384457 0.364163
  C 2.219579 0.213480 0.309662
  C 3.118307 0.567873 1.450352
  C 2.455528 0.979717 2.758002
  C 3.511557 1.278224 3.824553
  C 2.772997 -0.280632 -0.856993
  C 4.078727 -0.561721 -1.057526
  C 5.168622 -1.157891 -1.367478
  H 5.451768 -2.196197 -1.430215
  O 6.419108 -0.347326 -1.455099
  H 0.407513 0.773855 1.316459
  H 0.249669 -0.569496 0.186304
  H 0.417344 1.061787 -0.423359
  H 3.769793 1.381621 1.123865
  H 3.773737 -0.288310 1.641286
  H 1.806042 0.177738 3.123596
  H 1.841778 1.872292 2.617630
  H 4.121407 0.399272 4.021816
  H 3.033824 1.572176 4.759775
  H 4.158573 2.094343 3.510474
  H 2.121277 -0.440420 -1.706332
  H 6.057874 0.469362 -1.041369
  H 6.985689 -0.008016 -2.186403
 23
 43.860637
  C 0.775593 0.435752 0.326283
  C 2.243102 0.217237 0.307138
  C 3.129435 0.521526 1.471496
  C 2.450275 0.980357 2.758898
  C 3.484715 1.231229 3.853083
  C 2.805218 -0.320142 -0.843577
  C 4.098853 -0.635532 -1.023283
  C 5.266322 -1.125926 -1.221668
  H 5.647369 -2.123129 -1.080833
  O 6.407152 -0.238145 -1.571811
  H 0.426948 0.830211 1.272576
  H 0.251219 -0.500972 0.128626
  H 0.485680 1.128783 -0.464600
  H 3.843287 1.296177 1.169405
  H 3.723133 -0.371067 1.689902
  H 1.750712 0.218943 3.105260
  H 1.893476 1.902771 2.586385
  H 4.045307 0.327363 4.067938
  H 2.996252 1.552146 4.770910
  H 4.183714 2.010926 3.554472
  H 2.155590 -0.499582 -1.689569
  H 6.131235 0.655541 -1.277214
  H 6.694222 -0.175985 -2.515520
 23
 41.595921
  C 0.781239 0.460417 0.305920
  C 2.251504 0.229962 0.312001
  C 3.126365 0.548740 1.484938
  C 2.427270 0.959438 2.782025
  C 3.449668 1.203519 3.890261
  C 2.826386 -0.319207 -0.825199
  C 4.127142 -0.610699 -1.000780
  C 5.325746 -1.049169 -1.149938
  H 5.723621 -2.012912 -0.883168
  O 6.422859 -0.219505 -1.689179
  H 0.422821 0.877038 1.239548
  H 0.250968 -0.478019 0.121110
  H 0.506067 1.139380 -0.503540
  H 3.811412 1.353985 1.200545
  H 3.754866 -0.326430 1.689964
  H 1.740650 0.171946 3.101376
  H 1.851367 1.875450 2.629775
  H 4.027853 0.304289 4.086746
  H 2.949643 1.491914 4.812704
  H 4.135899 2.001559 3.614214
  H 2.176844 -0.534245 -1.665814
  H 6.186496 0.734330 -1.677812
  H 6.701071 -0.516588 -2.585460
 23
 42.108557
  C 0.775724 0.452580 0.313900
  C 2.245381 0.227701 0.314592
  C 3.121312 0.553753 1.480998
  C 2.424746 0.961581 2.777118
  C 3.447262 1.208225 3.882863
  C 2.820284 -0.323447 -0.823286
  C 4.123946 -0.591909 -1.004790
  C 5.322048 -1.024264 -1.161582
  H 5.725309 -1.984122 -0.881371
  O 6.393666 -0.199950 -1.731262
  H 0.420430 0.879722 1.245503
  H 0.249138 -0.487886 0.144104
  H 0.494124 1.120215 -0.502182
  H 3.801134 1.361288 1.192078
  H 3.754803 -0.316437 1.684923
  H 1.741363 0.173262 3.096747
  H 1.846709 1.874875 2.625701
  H 4.028582 0.310430 4.077942
  H 2.948356 1.494377 4.805015
  H 4.130332 2.008044 3.605805
  H 2.169127 -0.551646 -1.658959
  H 6.151190 0.739762 -1.879501
  H 6.951822 -0.638820 -2.411035
 23
 44.502557
  C 0.747301 0.372375 0.354220
  C 2.223831 0.206369 0.316467
  C 3.111870 0.538708 1.471481
  C 2.432582 0.989696 2.761603
  C 3.469119 1.269544 3.845511
  C 2.793475 -0.302775 -0.843191
  C 4.104396 -0.516085 -1.056909
  C 5.269804 -1.018902 -1.254152
  H 5.601463 -2.025670 -1.051306
  O 6.391698 -0.214684 -1.718219
  H 0.397178 0.763479 1.302146
  H 0.253995 -0.584032 0.172939
  H 0.421896 1.047499 -0.439178
  H 3.805731 1.326710 1.158705
  H 3.728227 -0.340108 1.691797
  H 1.750985 0.214121 3.116910
  H 1.854746 1.899303 2.585944
  H 4.050075 0.376163 4.063606
  H 2.981963 1.588340 4.764106
  H 4.150901 2.057609 3.533669
  H 2.135885 -0.509821 -1.679452
  H 6.281713 0.757129 -1.706091
  H 7.127955 -0.647637 -2.197285
 23
 45.383624
  C 0.732157 0.327156 0.378200
  C 2.212555 0.209374 0.310725
  C 3.109214 0.549773 1.457307
  C 2.439613 0.996992 2.753709
  C 3.485295 1.296072 3.823699
  C 2.776246 -0.265652 -0.864858
  C 4.092006 -0.440358 -1.099397
  C 5.224753 -0.999916 -1.341300
  H 5.485615 -2.040043 -1.212835
  O 6.399466 -0.235545 -1.728863
  H 0.387096 0.692555 1.338117
  H 0.266425 -0.641576 0.190232
  H 0.371598 1.003853 -0.398448
  H 3.791999 1.343146 1.134936
  H 3.733727 -0.324355 1.673049
  H 1.773439 0.213940 3.121512
  H 1.846947 1.897529 2.580627
  H 4.080426 0.411479 4.039342
  H 3.004755 1.612917 4.746443
  H 4.152505 2.091756 3.500065
  H 2.111398 -0.461262 -1.698535
  H 6.387120 0.729817 -1.569898
  H 7.222431 -0.720319 -1.940512
