20

C 1.003935 0.138705 0.361449
C 2.483603 0.155402 0.397685
H 3.032120177395828 0.4907583330206019 1.2530007522252753
C 3.114431 -0.295082 -0.7501
C 4.487382 -0.396916 -0.991201
C 5.139314 -0.863467 -2.122018
C 4.618318 -1.394183 -3.413497
C 3.121944 -1.50218 -3.68435
H 2.945402397790742 -1.9038997346717461 -4.660236426519321
O 6.465118 -0.870796 -2.132503
H 0.542702 0.495282 1.275972
H 0.641729 -0.876695 0.177128
H 0.645441 0.760851 -0.459674
H 2.451184 -0.608121 -1.54023
H 5.123331 -0.063592 -0.177711
H 5.063336 -2.388232 -3.537269
H 5.067152 -0.777558 -4.200809
H 2.655797 -0.517201 -3.63302
H 2.651816 -2.162977 -2.954637
H 6.852481 -0.531003 -1.304147
