 20
 0.000000
  H 1.433624 0.195950 0.539865
  C 2.498331 0.137802 0.394685
  H 3.141712 0.460260 1.196541
  C 3.006397 -0.334233 -0.780598
  C 4.393060 -0.414945 -0.982343
  C 5.105970 -0.865146 -2.105183
  C 4.611376 -1.384530 -3.400286
  C 3.125879 -1.507238 -3.707225
  C 2.933188 -2.071298 -5.113111
  O 6.412091 -0.847815 -2.062277
  H 2.324519 -0.644425 -1.552757
  H 4.994830 -0.078277 -0.143512
  H 5.080866 -2.368394 -3.528823
  H 5.081545 -0.762753 -4.173130
  H 2.644575 -0.529796 -3.661684
  H 2.644113 -2.181946 -2.998829
  H 3.381339 -1.421464 -5.860787
  H 1.874137 -2.161918 -5.339644
  H 3.381011 -3.057834 -5.204162
  H 6.791143 -0.512936 -1.225337
 20
 1.419581
  H 1.415208 0.101542 0.575450
  C 2.478829 0.017356 0.421078
  H 3.110469 0.100704 1.289269
  C 2.993992 -0.223713 -0.817174
  C 4.378363 -0.339533 -1.009701
  C 5.099459 -0.780244 -2.131014
  C 4.612230 -1.367534 -3.398641
  C 3.129452 -1.434642 -3.726077
  C 2.922506 -2.114244 -5.080386
  O 6.402352 -0.666943 -2.115444
  H 2.319744 -0.317416 -1.655184
  H 5.001258 -0.019392 -0.182162
  H 5.025459 -2.386639 -3.423700
  H 5.140368 -0.854788 -4.208650
  H 2.708099 -0.428622 -3.779773
  H 2.596720 -2.005905 -2.966997
  H 3.436908 -1.574545 -5.871761
  H 1.865461 -2.145074 -5.328588
  H 3.295069 -3.139637 -5.066593
  H 6.842039 -0.542391 -1.251481
 20
 5.975419
  H 1.390725 0.060590 0.538337
  C 2.453365 -0.039952 0.400239
  H 3.067766 -0.061816 1.284807
  C 2.990304 -0.178389 -0.841339
  C 4.379261 -0.319859 -1.018575
  C 5.104447 -0.730125 -2.143001
  C 4.625420 -1.331892 -3.399340
  C 3.141998 -1.440278 -3.704476
  C 2.927148 -2.156537 -5.036774
  O 6.416417 -0.570180 -2.113320
  H 2.342816 -0.152278 -1.700456
  H 5.010268 -0.000832 -0.198766
  H 5.072523 -2.334862 -3.432038
  H 5.124997 -0.802269 -4.221239
  H 2.695906 -0.449873 -3.774055
  H 2.632924 -2.001100 -2.919318
  H 3.423010 -1.632138 -5.849152
  H 1.866621 -2.208959 -5.268873
  H 3.309832 -3.175116 -5.000962
  H 6.900119 -0.823780 -1.306924
 20
 11.554057
  H 1.364927 0.047295 0.515758
  C 2.423770 -0.075818 0.380843
  H 3.028883 -0.169992 1.266921
  C 2.973407 -0.123637 -0.859544
  C 4.360535 -0.281480 -1.038377
  C 5.095794 -0.693389 -2.150317
  C 4.642797 -1.312155 -3.403307
  C 3.158285 -1.449722 -3.691124
  C 2.934690 -2.184766 -5.010255
  O 6.416041 -0.524162 -2.057546
  H 2.338915 -0.020035 -1.725480
  H 5.032672 0.013020 -0.238703
  H 5.112651 -2.304988 -3.442613
  H 5.123095 -0.762809 -4.222714
  H 2.698606 -0.466280 -3.766088
  H 2.667104 -2.004666 -2.888079
  H 3.378087 -1.644297 -5.841258
  H 1.872701 -2.286215 -5.207447
  H 3.364444 -3.184268 -4.981634
  H 6.915402 -1.073686 -1.430295
 20
 16.225255
  H 1.335513 0.003530 0.526469
  C 2.396298 -0.109978 0.386250
  H 2.994598 -0.300627 1.262033
  C 2.952633 -0.053813 -0.850596
  C 4.333294 -0.236298 -1.047510
  C 5.082716 -0.656534 -2.146458
  C 4.666150 -1.305735 -3.394540
  C 3.178235 -1.443100 -3.676511
  C 2.940541 -2.190698 -4.985085
  O 6.394016 -0.443523 -1.973635
  H 2.328504 0.153496 -1.707665
  H 5.075150 0.027739 -0.297917
  H 5.135922 -2.298172 -3.427797
  H 5.150581 -0.750866 -4.210850
  H 2.724229 -0.454862 -3.758598
  H 2.686658 -1.981768 -2.864405
  H 3.384449 -1.666041 -5.826530
  H 1.874592 -2.286707 -5.173297
  H 3.359869 -3.193435 -4.945164
  H 6.923294 -1.164887 -1.599398
 20
 23.298529
  H 1.314024 -0.003964 0.545787
  C 2.370535 -0.139758 0.397006
  H 2.954525 -0.446444 1.247625
  C 2.932067 0.017586 -0.825928
  C 4.294391 -0.230071 -1.061501
  C 5.059312 -0.653722 -2.148667
  C 4.692053 -1.332405 -3.393969
  C 3.201407 -1.472006 -3.666328
  C 2.953156 -2.197755 -4.985278
  O 6.346753 -0.379306 -1.893842
  H 2.332994 0.390293 -1.646053
  H 5.147341 0.000975 -0.402596
  H 5.162902 -2.326390 -3.422019
  H 5.176821 -0.774153 -4.207647
  H 2.741544 -0.485440 -3.719918
  H 2.714828 -2.027090 -2.860518
  H 3.398257 -1.670649 -5.820265
  H 1.885813 -2.283425 -5.167945
  H 3.361563 -3.206494 -4.956784
  H 6.935744 -1.138839 -1.739043
 20
 39.351516
  H 1.339261 0.058777 0.670427
  C 2.372925 -0.159142 0.463934
  H 2.955022 -0.592021 1.262570
  C 2.904604 0.076823 -0.758064
  C 4.236256 -0.225256 -1.089871
  C 5.013625 -0.659491 -2.167984
  C 4.712358 -1.338379 -3.432087
  C 3.216331 -1.489286 -3.707741
  C 2.974372 -2.246389 -5.010428
  O 6.289474 -0.364308 -1.834759
  H 2.307157 0.572169 -1.518261
  H 5.229603 0.027006 -0.551732
  H 5.185029 -2.326144 -3.451574
  H 5.180952 -0.754619 -4.233611
  H 2.757829 -0.502522 -3.774865
  H 2.749441 -2.029130 -2.883680
  H 3.411540 -1.713918 -5.859415
  H 1.907485 -2.356823 -5.193915
  H 3.411639 -3.241703 -4.969787
  H 6.901395 -1.106704 -1.716508
 20
 60.939148
  H 1.410897 0.105813 0.866350
  C 2.414417 -0.153686 0.580328
  H 3.029089 -0.618560 1.332337
  C 2.866468 0.090433 -0.667753
  C 4.123521 -0.263457 -1.151043
  C 4.881479 -0.669227 -2.150331
  C 4.679356 -1.350980 -3.443526
  C 3.201705 -1.512083 -3.799077
  C 3.039361 -2.248747 -5.123729
  O 6.217668 -0.337256 -1.731645
  H 2.249233 0.674804 -1.347218
  H 5.467781 -0.014807 -0.673642
  H 5.159840 -2.333552 -3.431077
  H 5.183475 -0.755297 -4.211760
  H 2.733222 -0.530560 -3.875584
  H 2.694885 -2.070889 -3.010928
  H 3.517131 -1.701053 -5.933042
  H 1.986519 -2.361953 -5.368956
  H 3.482143 -3.240913 -5.073749
  H 6.819867 -1.096144 -1.585351
 20
 54.133107
  H 1.447983 0.167957 0.960665
  C 2.419892 -0.139344 0.621354
  H 3.041997 -0.655166 1.331915
  C 2.824561 0.104121 -0.646031
  C 4.045468 -0.257520 -1.176024
  C 4.821274 -0.660586 -2.139284
  C 4.661884 -1.348486 -3.438519
  C 3.194745 -1.525916 -3.825527
  C 3.071487 -2.262548 -5.154131
  O 6.198694 -0.333353 -1.688314
  H 2.194843 0.715710 -1.289302
  H 5.692103 -0.023295 -0.781418
  H 5.151098 -2.326446 -3.412610
  H 5.175063 -0.748822 -4.196547
  H 2.716754 -0.549416 -3.910180
  H 2.677087 -2.090655 -3.048832
  H 3.557920 -1.706427 -5.952553
  H 2.025630 -2.390938 -5.421763
  H 3.527559 -3.248338 -5.095970
  H 6.786359 -1.111482 -1.544113
 20
 43.683839
  H 1.419974 0.102511 0.973287
  C 2.393012 -0.182993 0.619217
  H 3.013560 -0.742703 1.296419
  C 2.802527 0.140096 -0.634345
  C 3.985712 -0.240608 -1.204345
  C 4.807971 -0.636718 -2.121365
  C 4.665583 -1.351930 -3.414580
  C 3.204067 -1.506397 -3.831524
  C 3.094125 -2.275716 -5.142695
  O 6.221140 -0.318992 -1.731579
  H 2.184698 0.807401 -1.230780
  H 5.935614 0.002917 -0.831416
  H 5.128461 -2.340609 -3.354647
  H 5.206356 -0.778046 -4.172329
  H 2.751416 -0.521531 -3.952236
  H 2.655285 -2.036796 -3.051907
  H 3.619417 -1.757069 -5.941537
  H 2.052542 -2.379127 -5.436182
  H 3.517111 -3.272993 -5.044862
  H 6.811241 -1.105479 -1.630391
 20
 36.857687
  H 1.401691 0.127375 1.014706
  C 2.317310 -0.237083 0.588227
  H 2.860768 -0.977953 1.147237
  C 2.755238 0.213620 -0.623098
  C 3.887741 -0.202316 -1.245319
  C 4.765177 -0.604653 -2.100224
  C 4.631784 -1.346285 -3.388242
  C 3.173615 -1.527825 -3.805738
  C 3.078128 -2.300033 -5.116611
  O 6.184363 -0.321149 -1.760359
  H 2.206147 1.009833 -1.115918
  H 6.094796 0.081724 -0.864282
  H 5.101793 -2.329253 -3.307778
  H 5.163100 -0.778361 -4.156299
  H 2.701225 -0.551981 -3.925344
  H 2.633611 -2.067649 -3.026185
  H 3.593462 -1.772050 -5.915732
  H 2.038846 -2.423892 -5.409914
  H 3.520032 -3.288988 -5.017583
  H 6.760067 -1.121405 -1.682847
 20
 33.773192
  H 1.351992 0.072776 0.966864
  C 2.216965 -0.335068 0.476957
  H 2.611055 -1.260593 0.855793
  C 2.783298 0.299466 -0.598189
  C 3.867826 -0.146792 -1.269156
  C 4.780130 -0.560102 -2.079517
  C 4.639077 -1.343698 -3.350611
  C 3.176329 -1.538051 -3.754519
  C 3.073295 -2.322637 -5.056703
  O 6.204378 -0.275050 -1.811380
  H 2.363315 1.242471 -0.934940
  H 6.314283 0.179444 -0.947157
  H 5.104967 -2.329391 -3.238340
  H 5.159442 -0.805799 -4.138243
  H 2.695329 -0.564156 -3.878103
  H 2.643858 -2.073059 -2.963604
  H 3.584050 -1.802878 -5.862234
  H 2.030508 -2.448421 -5.343351
  H 3.515233 -3.311083 -4.949600
  H 6.753563 -1.095705 -1.835269
