 26
 0.000000
  H 1.461465 0.064214 -0.002294
  C 2.539209 0.065986 -0.033720
  C 3.212732 -0.009715 1.307928
  C 2.231302 -0.075390 2.471737
  H 2.762854 -0.128782 3.418022
  C 3.178709 0.132254 -1.208123
  C 2.467056 0.207142 -2.535308
  C 0.942105 0.205730 -2.510241
  C 0.375959 0.285526 -3.924427
  C 4.631657 0.136200 -1.277982
  C 5.373462 0.198629 -2.384489
  O 6.730460 0.199703 -2.403470
  H 3.856320 0.865910 1.444289
  H 3.856325 -0.895123 1.344920
  H 1.593919 -0.953456 2.384053
  H 1.593913 0.806960 2.483388
  H 2.797971 -0.638332 -3.146979
  H 2.797974 1.116060 -3.047983
  H 0.576158 1.060838 -1.938756
  H 0.576161 -0.708236 -2.038582
  H 0.702702 1.197168 -4.420263
  H -0.711509 0.283981 -3.897050
  H 0.702700 -0.564547 -4.519665
  H 5.162046 0.083013 -0.335354
  H 4.987345 0.255334 -3.389419
  H 7.066988 0.148682 -1.499185
 26
 10.534332
  H 1.461780 0.067203 -0.055283
  C 2.537389 0.069017 -0.087461
  C 3.266290 -0.013289 1.371274
  C 2.184721 -0.083830 2.621303
  H 2.708642 -0.137340 3.569655
  C 3.177103 0.134754 -1.252444
  C 2.464688 0.209592 -2.578745
  C 0.939550 0.207779 -2.546573
  C 0.366682 0.287425 -3.958065
  C 4.629901 0.138445 -1.317785
  C 5.374715 0.200762 -2.422292
  O 6.731473 0.201658 -2.438112
  H 3.903653 0.859935 1.511635
  H 3.903657 -0.896757 1.412510
  H 1.551427 -0.960650 2.523133
  H 1.551418 0.798464 2.622395
  H 2.794462 -0.636072 -3.190630
  H 2.794464 1.118725 -3.091612
  H 0.576733 1.062696 -1.972529
  H 0.576734 -0.706286 -2.072350
  H 0.691259 1.199139 -4.455235
  H -0.720656 0.285620 -3.926047
  H 0.691258 -0.562571 -4.554640
  H 5.156307 0.085122 -0.372734
  H 4.990307 0.257511 -3.428013
  H 7.066215 0.150600 -1.533165
 26
 34.137324
  H 1.463856 0.069173 -0.090193
  C 2.533371 0.072001 -0.140318
  C 3.331697 -0.016524 1.428617
  C 2.133108 -0.091053 2.749303
  H 2.652519 -0.144384 3.694484
  C 3.176937 0.137112 -1.294207
  C 2.461121 0.211938 -2.620310
  C 0.935453 0.209380 -2.574937
  C 0.350337 0.288736 -3.981276
  C 4.631289 0.140312 -1.350861
  C 5.382327 0.202368 -2.450754
  O 6.738439 0.202905 -2.460225
  H 3.949843 0.854166 1.572659
  H 3.949849 -0.897889 1.473794
  H 1.513641 -0.966918 2.624650
  H 1.513633 0.793270 2.723972
  H 2.788955 -0.634192 -3.232172
  H 2.788959 1.121535 -3.133105
  H 0.578660 1.063914 -1.996105
  H 0.578657 -0.704850 -2.095908
  H 0.671066 1.200578 -4.480803
  H -0.736619 0.286458 -3.940898
  H 0.671065 -0.561123 -4.580206
  H 5.147994 0.086679 -0.400315
  H 5.001290 0.259206 -3.458079
  H 7.069618 0.151775 -1.553993
 26
 62.476234
  H 1.450814 0.069844 -0.102098
  C 2.519111 0.074110 -0.177698
  C 3.396533 -0.020317 1.495849
  C 2.089031 -0.099229 2.894183
  H 2.615906 -0.152381 3.836188
  C 3.171322 0.139366 -1.334164
  C 2.455356 0.214340 -2.662865
  C 0.930028 0.211596 -2.614204
  C 0.342063 0.290869 -4.019095
  C 4.625220 0.142221 -1.384688
  C 5.380029 0.204108 -2.481582
  O 6.736159 0.204456 -2.487731
  H 4.002671 0.861499 1.641328
  H 4.002673 -0.912894 1.541201
  H 1.481168 -0.980111 2.745390
  H 1.481162 0.792793 2.845429
  H 2.783815 -0.632326 -3.273425
  H 2.783818 1.124316 -3.174303
  H 0.575564 1.065758 -2.033659
  H 0.575565 -0.702446 -2.133438
  H 0.662294 1.202685 -4.518958
  H -0.744767 0.288506 -3.977188
  H 0.662294 -0.558930 -4.618362
  H 5.133768 0.088361 -0.430110
  H 5.000338 0.260981 -3.489562
  H 7.065554 0.153289 -1.580816
 26
 92.428347
  H 1.447071 0.071610 -0.133378
  C 2.509638 0.077223 -0.232840
  C 3.468096 -0.023104 1.545253
  C 2.055449 -0.106486 3.022791
  H 2.590611 -0.159155 3.956243
  C 3.157581 0.141083 -1.364558
  C 2.445566 0.216173 -2.695343
  C 0.920189 0.213477 -2.647546
  C 0.333016 0.292771 -4.052783
  C 4.609846 0.143311 -1.403983
  C 5.373119 0.204923 -2.496020
  O 6.728531 0.204770 -2.493276
  H 4.057648 0.862818 1.690255
  H 4.057658 -0.919715 1.589671
  H 1.462325 -0.988781 2.851834
  H 1.462316 0.789435 2.952172
  H 2.776084 -0.631089 -3.303751
  H 2.776085 1.126495 -3.204573
  H 0.566365 1.067518 -2.066322
  H 0.566361 -0.700529 -2.166085
  H 0.654021 1.204574 -4.552278
  H -0.753792 0.290473 -4.012010
  H 0.654016 -0.557053 -4.651680
  H 5.107220 0.089095 -0.443096
  H 4.999124 0.261916 -3.506193
  H 7.052132 0.153492 -1.584355
 26
 119.134351
  H 1.414208 0.067837 -0.066202
  C 2.460043 0.078919 -0.262642
  C 3.548332 -0.025622 1.590126
  C 2.014887 -0.112742 3.133529
  H 2.602092 -0.163222 4.027912
  C 3.136208 0.142669 -1.392566
  C 2.435828 0.218179 -2.730948
  C 0.911361 0.215408 -2.681736
  C 0.321805 0.294557 -4.084513
  C 4.594933 0.143819 -1.412914
  C 5.368522 0.204816 -2.494194
  O 6.722762 0.203973 -2.479234
  H 4.102543 0.877268 1.737414
  H 4.102517 -0.939363 1.634888
  H 1.475905 -1.004583 2.888801
  H 1.475902 0.800961 2.990719
  H 2.771777 -0.629028 -3.337797
  H 2.771777 1.128258 -3.238643
  H 0.560080 1.068519 -2.095703
  H 0.560072 -0.698206 -2.195380
  H 0.642656 1.206413 -4.584133
  H -0.764888 0.292186 -4.042383
  H 0.642645 -0.555311 -4.683530
  H 5.066091 0.088962 -0.440522
  H 5.000216 0.261894 -3.505980
  H 7.037951 0.152566 -1.567890
 26
 145.719255
  H 1.405862 0.068622 -0.080144
  C 2.448015 0.080920 -0.298137
  C 3.617117 -0.029336 1.655892
  C 1.981916 -0.121232 3.283968
  H 2.580185 -0.171534 4.175175
  C 3.125483 0.144479 -1.424658
  C 2.427413 0.220456 -2.771304
  C 0.902399 0.217853 -2.725081
  C 0.314825 0.297113 -4.129839
  C 4.578629 0.145245 -1.438209
  C 5.358599 0.206226 -2.519178
  O 6.714161 0.205093 -2.499062
  H 4.164452 0.883082 1.803964
  H 4.164431 -0.952636 1.700361
  H 1.452896 -1.018263 3.022087
  H 1.452883 0.799572 3.124696
  H 2.764859 -0.627010 -3.375464
  H 2.764864 1.130502 -3.276304
  H 0.551360 1.070051 -2.140226
  H 0.551355 -0.694715 -2.239798
  H 0.636702 1.208832 -4.628867
  H -0.771913 0.294864 -4.089883
  H 0.636692 -0.552687 -4.728253
  H 5.043301 0.090117 -0.460998
  H 4.993271 0.263433 -3.533246
  H 7.026319 0.153564 -1.585566
 26
 169.578800
  H 1.394519 0.069645 -0.098252
  C 2.429926 0.083223 -0.338933
  C 3.684598 -0.032585 1.713507
  C 1.952521 -0.129519 3.430854
  H 2.562472 -0.179058 4.308558
  C 3.110136 0.146446 -1.459504
  C 2.417855 0.222577 -2.808899
  C 0.893375 0.220087 -2.764669
  C 0.308325 0.299367 -4.169784
  C 4.566755 0.146726 -1.464453
  C 5.349935 0.207118 -2.534994
  O 6.702560 0.205476 -2.505860
  H 4.222175 0.881442 1.860541
  H 4.222148 -0.957363 1.756764
  H 1.438752 -1.025230 3.153380
  H 1.438752 0.791709 3.255943
  H 2.757368 -0.625796 -3.410459
  H 2.757374 1.133230 -3.311214
  H 0.541989 1.072997 -2.179689
  H 0.541982 -0.693204 -2.279339
  H 0.631168 1.211081 -4.668235
  H -0.778343 0.297216 -4.131562
  H 0.631158 -0.550492 -4.767622
  H 5.022445 0.091389 -0.483533
  H 4.991086 0.264383 -3.550089
  H 7.007917 0.153903 -1.591575
 26
 190.072022
  H 1.377088 0.070347 -0.110694
  C 2.407319 0.085139 -0.372896
  C 3.750108 -0.036120 1.776134
  C 1.925969 -0.138366 3.587590
  H 2.553049 -0.187373 4.455856
  C 3.090999 0.148128 -1.489321
  C 2.406143 0.224628 -2.845254
  C 0.881289 0.222492 -2.807280
  C 0.302026 0.301930 -4.215189
  C 4.547174 0.147853 -1.484430
  C 5.346458 0.208534 -2.560085
  O 6.702650 0.206385 -2.521910
  H 4.283118 0.884671 1.922307
  H 4.283096 -0.967531 1.817774
  H 1.423284 -1.038176 3.294760
  H 1.423275 0.788681 3.397879
  H 2.749041 -0.624598 -3.443608
  H 2.749044 1.135763 -3.344286
  H 0.528399 1.075121 -2.223777
  H 0.528390 -0.690357 -2.323382
  H 0.627193 1.213568 -4.712284
  H -0.784844 0.300038 -4.181555
  H 0.627182 -0.548008 -4.811671
  H 4.993165 0.092186 -0.497646
  H 4.993905 0.266023 -3.579165
  H 7.002924 0.154598 -1.603810
 26
 207.233293
  H 1.364442 0.071385 -0.129070
  C 2.387700 0.087379 -0.412580
  C 3.823422 -0.039146 1.829745
  C 1.913966 -0.147081 3.742012
  H 2.557990 -0.195156 4.593749
  C 3.073829 0.150036 -1.523132
  C 2.397740 0.226851 -2.884636
  C 0.873151 0.225091 -2.853358
  C 0.300445 0.304665 -4.263679
  C 4.527695 0.149160 -1.507591
  C 5.316682 0.208221 -2.554530
  O 6.664984 0.205464 -2.505610
  H 4.352232 0.883346 1.973380
  H 4.352200 -0.971951 1.868671
  H 1.424528 -1.046108 3.436777
  H 1.424523 0.780579 3.539889
  H 2.744264 -0.622928 -3.479476
  H 2.744269 1.138140 -3.380115
  H 0.518303 1.077956 -2.271013
  H 0.518295 -0.687857 -2.370640
  H 0.628098 1.216197 -4.759246
  H -0.786451 0.303049 -4.234931
  H 0.628087 -0.545339 -4.858629
  H 4.964379 0.093335 -0.518015
  H 4.971406 0.265709 -3.573603
  H 6.956563 0.153691 -1.587772
 26
 220.393694
  H 1.301832 0.068415 -0.076450
  C 2.298114 0.088856 -0.438771
  C 3.904690 -0.039082 1.828464
  C 1.944649 -0.155585 3.892495
  H 2.670080 -0.200077 4.680644
  C 3.006728 0.150572 -1.532621
  C 2.375651 0.228679 -2.916971
  C 0.850657 0.228725 -2.917675
  C 0.305471 0.308920 -4.339023
  C 4.455095 0.147131 -1.471610
  C 5.289505 0.205438 -2.505167
  O 6.635004 0.200207 -2.412403
  H 4.434051 0.893241 1.961736
  H 4.434021 -0.980495 1.855985
  H 1.501504 -1.062715 3.532759
  H 1.501462 0.786335 3.637111
  H 2.738538 -0.624077 -3.497643
  H 2.738536 1.141323 -3.398032
  H 0.486925 1.081269 -2.340975
  H 0.486917 -0.683276 -2.440530
  H 0.643665 1.220130 -4.828100
  H -0.781853 0.308491 -4.331305
  H 0.643668 -0.541521 -4.927507
  H 4.849309 0.090328 -0.464714
  H 4.977616 0.263579 -3.535772
  H 6.898098 0.147636 -1.480457
 26
 231.372076
  H 1.287942 0.070125 -0.106624
  C 2.280959 0.090932 -0.475456
  C 3.973985 -0.042302 1.885710
  C 1.932131 -0.164798 4.056022
  H 2.662306 -0.208592 4.831889
  C 2.991243 0.152372 -1.564477
  C 2.363572 0.230728 -2.953316
  C 0.838933 0.231023 -2.958412
  C 0.297817 0.311294 -4.381186
  C 4.449390 0.148523 -1.496258
  C 5.289887 0.206593 -2.525679
  O 6.640969 0.200936 -2.425408
  H 4.505264 0.886472 2.017092
  H 4.505232 -0.979978 1.911756
  H 1.495424 -1.066906 3.694237
  H 1.495434 0.772263 3.798062
  H 2.727764 -0.621783 -3.532229
  H 2.727769 1.142937 -3.432666
  H 0.473875 1.083503 -2.382510
  H 0.473866 -0.680817 -2.482051
  H 0.637496 1.222392 -4.869279
  H -0.789400 0.311035 -4.376479
  H 0.637489 -0.539132 -4.968665
  H 4.840014 0.091445 -0.484455
  H 4.982780 0.264867 -3.558711
  H 6.898175 0.148628 -1.498084
 26
 239.684431
  H 1.267057 0.071375 -0.128854
  C 2.255608 0.092813 -0.508849
  C 4.046040 -0.045240 1.937702
  C 1.934096 -0.174378 4.225605
  H 2.681651 -0.217432 4.988328
  C 2.970610 0.154026 -1.593823
  C 2.355060 0.232613 -2.986750
  C 0.830706 0.233482 -3.002037
  C 0.299391 0.313959 -4.428423
  C 4.426423 0.149544 -1.514367
  C 5.274069 0.207209 -2.536587
  O 6.620393 0.200969 -2.425957
  H 4.584972 0.882796 2.065364
  H 4.584943 -0.981766 1.960132
  H 1.502092 -1.079175 3.856768
  H 1.502074 0.766204 3.960927
  H 2.723606 -0.620384 -3.562275
  H 2.723608 1.144924 -3.462677
  H 0.462231 1.086070 -2.428325
  H 0.462222 -0.678224 -2.527863
  H 0.642706 1.224959 -4.914213
  H -0.787824 0.314110 -4.431006
  H 0.642694 -0.536613 -5.013591
  H 4.808098 0.092314 -0.499881
  H 4.975111 0.265594 -3.571559
  H 6.871534 0.148280 -1.491875
 26
 245.645844
  H 1.245293 0.072578 -0.150085
  C 2.229691 0.094549 -0.539544
  C 4.119264 -0.048266 1.991394
  C 1.943070 -0.184277 4.401140
  H 2.704636 -0.226391 5.147212
  C 2.949223 0.155473 -1.619436
  C 2.344834 0.234446 -3.019209
  C 0.820525 0.235951 -3.045742
  C 0.299772 0.316650 -4.476094
  C 4.405475 0.150283 -1.527458
  C 5.261686 0.207526 -2.542234
  O 6.608917 0.200643 -2.420229
  H 4.670424 0.879039 2.115231
  H 4.670391 -0.983635 2.010108
  H 1.516193 -1.087539 4.028621
  H 1.516198 0.755149 4.132645
  H 2.717712 -0.618939 -3.591330
  H 2.717717 1.146762 -3.491717
  H 0.448372 1.088495 -2.474562
  H 0.448359 -0.675428 -2.574074
  H 0.646989 1.227487 -4.959336
  H -0.787381 0.317252 -4.486618
  H 0.646982 -0.534068 -5.058723
  H 4.778482 0.092854 -0.509410
  H 4.971087 0.266059 -3.579838
  H 6.851341 0.148120 -1.489068
