 23
 0.000000
  H 1.406230 0.152265 0.434591
  C 2.485125 0.140843 0.403678
  C 3.236220 0.612025 1.571989
  H 2.606220 0.940399 2.389264
  C 3.060884 -0.328034 -0.762605
  C 4.439143 -0.415270 -0.981463
  C 5.121808 -0.868552 -2.112122
  C 4.617677 -1.388397 -3.409318
  C 3.127019 -1.504582 -3.700984
  C 2.913985 -2.066965 -5.104345
  O 6.436180 -0.862797 -2.097880
  H 3.891044 1.437078 1.281738
  H 3.892782 -0.182704 1.933955
  H 2.388373 -0.641873 -1.541966
  H 5.067578 -0.085901 -0.161835
  H 5.077123 -2.375686 -3.537878
  H 5.078014 -0.763792 -4.184151
  H 2.651467 -0.524584 -3.649211
  H 2.650651 -2.177153 -2.986867
  H 3.356916 -1.418648 -5.856604
  H 1.851446 -2.151759 -5.317197
  H 3.356222 -3.055736 -5.200452
  H 6.832701 -0.531401 -1.268858
 23
 8.990594
  H 1.387837 0.164943 0.466829
  C 2.467418 0.155561 0.440767
  C 3.203246 0.631128 1.618976
  H 2.551975 0.954311 2.423050
  C 3.050641 -0.311993 -0.721769
  C 4.419403 -0.392236 -0.923393
  C 5.177950 -0.897590 -2.184149
  C 4.651867 -1.410501 -3.464236
  C 3.153059 -1.511988 -3.719504
  C 2.900834 -2.072013 -5.117368
  O 6.476120 -0.886390 -2.156650
  H 3.856461 1.461364 1.341981
  H 3.858438 -0.157817 1.994421
  H 2.385286 -0.628648 -1.507803
  H 5.052001 -0.065978 -0.111645
  H 5.101832 -2.401353 -3.601842
  H 5.102798 -0.789555 -4.248010
  H 2.689283 -0.527426 -3.655012
  H 2.688353 -2.179135 -2.993144
  H 3.331985 -1.427855 -5.879999
  H 1.832933 -2.146658 -5.305117
  H 3.331172 -3.064928 -5.223986
  H 6.870000 -0.553844 -1.324879
 23
 27.026745
  H 1.384845 0.164956 0.466077
  C 2.463624 0.155624 0.440256
  C 3.177411 0.633129 1.624298
  H 2.488685 0.945875 2.402869
  C 3.047641 -0.302774 -0.700061
  C 4.405878 -0.368469 -0.864820
  C 5.241907 -0.925837 -2.254731
  C 4.676823 -1.428085 -3.507717
  C 3.172384 -1.511077 -3.716488
  C 2.875840 -2.067467 -5.106117
  O 6.515469 -0.889565 -2.164727
  H 3.822251 1.475468 1.371663
  H 3.824264 -0.147796 2.025386
  H 2.396736 -0.619771 -1.487196
  H 5.075516 -0.054385 -0.082937
  H 5.114420 -2.422669 -3.664778
  H 5.115070 -0.817879 -4.308255
  H 2.727203 -0.519500 -3.637727
  H 2.726233 -2.173753 -2.975030
  H 3.293223 -1.427801 -5.879956
  H 1.802875 -2.130776 -5.265727
  H 3.292310 -3.064851 -5.224399
  H 6.885395 -0.555340 -1.328441
 23
 47.115474
  H 1.347136 0.161366 0.459745
  C 2.425007 0.156974 0.445104
  C 3.115702 0.642325 1.645377
  H 2.401221 0.946307 2.402070
  C 3.042089 -0.300992 -0.693093
  C 4.416718 -0.350242 -0.818058
  C 5.329523 -0.959384 -2.337646
  C 4.726595 -1.451356 -3.565399
  C 3.212303 -1.505173 -3.702001
  C 2.834665 -2.054289 -5.074572
  O 6.570150 -0.903341 -2.198534
  H 3.756517 1.492152 1.409737
  H 3.759691 -0.130888 2.064621
  H 2.410298 -0.622557 -1.490484
  H 5.145266 -0.056317 -0.087013
  H 5.144930 -2.453053 -3.738920
  H 5.145726 -0.847409 -4.382740
  H 2.792807 -0.505736 -3.598128
  H 2.791705 -2.156442 -2.937245
  H 3.224761 -1.422627 -5.868958
  H 1.754055 -2.095781 -5.180167
  H 3.223513 -3.060051 -5.213657
  H 6.925808 -0.568512 -1.359838
 23
 67.242831
  H 1.318645 0.187473 0.526869
  C 2.394189 0.185880 0.518215
  C 3.086129 0.675218 1.726014
  H 2.375598 0.979832 2.484420
  C 3.024855 -0.276305 -0.629740
  C 4.371507 -0.323608 -0.750780
  C 5.354483 -0.986002 -2.403395
  C 4.750984 -1.474455 -3.622815
  C 3.228999 -1.523198 -3.747328
  C 2.835327 -2.070956 -5.116969
  O 6.609072 -0.930760 -2.266487
  H 3.727630 1.525430 1.488587
  H 3.731703 -0.098585 2.144594
  H 2.390435 -0.603564 -1.440111
  H 5.116389 -0.036839 -0.038127
  H 5.166092 -2.480318 -3.797444
  H 5.167264 -0.868332 -4.443752
  H 2.815006 -0.521300 -3.637171
  H 2.813827 -2.171896 -2.976729
  H 3.220166 -1.440585 -5.915402
  H 1.753306 -2.108126 -5.212062
  H 3.218801 -3.078617 -5.260023
  H 6.974619 -0.592836 -1.419937
 23
 85.100791
  H 1.281727 0.209448 0.582204
  C 2.363935 0.209766 0.577825
  C 3.052274 0.700685 1.789284
  H 2.334424 1.005363 2.548233
  C 3.001932 -0.251654 -0.568384
  C 4.343876 -0.296446 -0.683495
  C 5.392958 -1.013151 -2.471070
  C 4.773449 -1.499010 -3.684091
  C 3.256065 -1.537004 -3.781950
  C 2.834891 -2.081183 -5.142761
  O 6.643939 -0.957342 -2.332463
  H 3.693252 1.552184 1.554476
  H 3.697596 -0.072013 2.210539
  H 2.374303 -0.578275 -1.376791
  H 5.104194 -0.016369 0.012111
  H 5.178138 -2.504288 -3.864371
  H 5.179412 -0.897297 -4.508707
  H 2.852393 -0.532346 -3.663512
  H 2.851039 -2.182138 -3.003259
  H 3.209829 -1.453651 -5.947618
  H 1.751542 -2.110601 -5.218573
  H 3.208449 -3.091311 -5.292454
  H 7.011014 -0.620728 -1.488793
 23
 100.558312
  H 1.255621 0.229376 0.631766
  C 2.333024 0.233111 0.635955
  C 3.011935 0.725301 1.850182
  H 2.289836 1.027127 2.601800
  C 2.982863 -0.227207 -0.507104
  C 4.320707 -0.268492 -0.613414
  C 5.434752 -1.039464 -2.536553
  C 4.802140 -1.522108 -3.741823
  C 3.278567 -1.549268 -3.812455
  C 2.826272 -2.090399 -5.165955
  O 6.683490 -0.984411 -2.399762
  H 3.651700 1.578624 1.619855
  H 3.656031 -0.045504 2.276135
  H 2.358180 -0.556968 -1.323057
  H 5.098960 0.004413 0.064169
  H 5.198908 -2.531706 -3.928042
  H 5.200144 -0.921217 -4.573656
  H 2.884904 -0.540865 -3.685060
  H 2.883731 -2.191046 -3.024862
  H 3.190309 -1.465456 -5.978290
  H 1.741072 -2.111505 -5.220794
  H 3.189040 -3.103680 -5.323066
  H 7.055513 -0.647530 -1.555138
 23
 112.974109
  H 1.221630 0.246192 0.672980
  C 2.301301 0.254915 0.689877
  C 2.967434 0.749936 1.911549
  H 2.234833 1.049150 2.656593
  C 2.967625 -0.203347 -0.447974
  C 4.300228 -0.240378 -0.543346
  C 5.475750 -1.066383 -2.603659
  C 4.828061 -1.546351 -3.802400
  C 3.304999 -1.560549 -3.840477
  C 2.817709 -2.096798 -5.181925
  O 6.724077 -1.013414 -2.472064
  H 3.606284 1.606350 1.688046
  H 3.610356 -0.018544 2.344561
  H 2.352601 -0.534438 -1.267469
  H 5.096413 0.024131 0.113480
  H 5.213811 -2.557985 -3.995005
  H 5.214985 -0.948329 -4.640222
  H 2.924230 -0.549415 -3.703163
  H 2.923113 -2.197609 -3.043751
  H 3.168785 -1.475132 -6.002108
  H 1.731712 -2.108074 -5.212058
  H 3.167591 -3.113037 -5.347082
  H 7.100016 -0.677956 -1.631009
 23
 122.097306
  H 1.191152 0.264636 0.719396
  C 2.268528 0.279409 0.750937
  C 2.914918 0.774840 1.973479
  H 2.174639 1.070303 2.709575
  C 2.953736 -0.176902 -0.382266
  C 4.284333 -0.211115 -0.470955
  C 5.518325 -1.092913 -2.669722
  C 4.857659 -1.571556 -3.865262
  C 3.331491 -1.571676 -3.868431
  C 2.804773 -2.103193 -5.197991
  O 6.771843 -1.046505 -2.554236
  H 3.552111 1.632876 1.756293
  H 3.556414 0.009696 2.412102
  H 2.345271 -0.511951 -1.211306
  H 5.091465 0.049154 0.175115
  H 5.232377 -2.587020 -4.063660
  H 5.233701 -0.974883 -4.709993
  H 2.964327 -0.556339 -3.720214
  H 2.963154 -2.204099 -3.060943
  H 3.141714 -1.484844 -6.027140
  H 1.717798 -2.103576 -5.201054
  H 3.140416 -3.123226 -5.371791
  H 7.154619 -0.711648 -1.714217
 23
 128.356863
  H 1.154472 0.282704 0.765941
  C 2.233298 0.303983 0.812844
  C 2.861871 0.802507 2.041817
  H 2.112802 1.095361 2.771725
  C 2.935411 -0.149609 -0.313517
  C 4.266490 -0.182056 -0.398719
  C 5.557527 -1.119777 -2.736542
  C 4.884750 -1.597664 -3.930417
  C 3.359480 -1.583777 -3.899105
  C 2.794845 -2.109468 -5.214073
  O 6.818169 -1.082385 -2.643248
  H 3.499218 1.662945 1.830269
  H 3.504080 0.040119 2.486310
  H 2.336335 -0.487076 -1.147819
  H 5.078032 0.076492 0.242490
  H 5.247581 -2.615624 -4.133630
  H 5.249153 -1.002693 -4.780431
  H 3.006667 -0.565546 -3.740543
  H 3.005266 -2.211009 -3.082084
  H 3.117688 -1.494626 -6.051119
  H 1.708390 -2.099005 -5.190399
  H 3.116165 -3.132501 -5.395788
  H 7.207703 -0.749556 -1.807571
 23
 132.638798
  H 1.120710 0.304181 0.821708
  C 2.198396 0.331017 0.881283
  C 2.809647 0.831026 2.111962
  H 2.055060 1.121282 2.835729
  C 2.914040 -0.120364 -0.239344
  C 4.246536 -0.151880 -0.323572
  C 5.593807 -1.145605 -2.800727
  C 4.909959 -1.622949 -3.993528
  C 3.384343 -1.596766 -3.932235
  C 2.785845 -2.117571 -5.234930
  O 6.861033 -1.118634 -2.733082
  H 3.446778 1.691959 1.904697
  H 3.452486 0.072129 2.560156
  H 2.321201 -0.461036 -1.080443
  H 5.059522 0.106827 0.317379
  H 5.262270 -2.643586 -4.200448
  H 5.264147 -1.028871 -4.848140
  H 3.044128 -0.575094 -3.764609
  H 3.042408 -2.219994 -3.106249
  H 3.096377 -1.505536 -6.079102
  H 1.699939 -2.097538 -5.187867
  H 3.094546 -3.143633 -5.423427
  H 7.260267 -0.787074 -1.899821
 23
 135.528165
  H 1.084283 0.327259 0.881668
  C 2.162575 0.358932 0.952089
  C 2.760215 0.861548 2.186909
  H 2.000189 1.150094 2.906700
  C 2.888398 -0.090317 -0.162864
  C 4.222305 -0.121257 -0.247204
  C 5.625932 -1.170896 -2.863538
  C 4.931250 -1.647671 -4.055257
  C 3.407222 -1.610843 -3.968128
  C 2.780244 -2.126675 -5.258398
  O 6.898463 -1.154542 -2.822052
  H 3.398468 1.723539 1.983026
  H 3.405125 0.105250 2.638612
  H 2.302215 -0.432948 -1.007597
  H 5.034326 0.138377 0.395441
  H 5.273922 -2.670325 -4.265097
  H 5.276089 -1.054391 -4.913451
  H 3.078453 -0.587068 -3.793020
  H 3.076389 -2.230219 -3.135208
  H 3.080028 -1.517226 -6.108086
  H 1.695804 -2.098357 -5.191171
  H 3.077885 -3.154779 -5.452371
  H 7.307248 -0.825366 -1.994124
 23
 137.458349
  H 1.049434 0.353968 0.950386
  C 2.127168 0.389042 1.028349
  C 2.713639 0.892890 2.263621
  H 1.950721 1.180092 2.979992
  C 2.859739 -0.058946 -0.082644
  C 4.195067 -0.089807 -0.168422
  C 5.654629 -1.195353 -2.924059
  C 4.949826 -1.671314 -4.114255
  C 3.426663 -1.625714 -4.005752
  C 2.775560 -2.137407 -5.286169
  O 6.930818 -1.188782 -2.906925
  H 3.352752 1.754402 2.061898
  H 3.360244 0.139473 2.717049
  H 2.277482 -0.403591 -0.931070
  H 5.005815 0.171112 0.476593
  H 5.284410 -2.695744 -4.326430
  H 5.286761 -1.078381 -4.975294
  H 3.107379 -0.599606 -3.824287
  H 3.105073 -2.242403 -3.166731
  H 3.066376 -1.529746 -6.140566
  H 1.692294 -2.102193 -5.202121
  H 3.064013 -3.167513 -5.484841
  H 7.349557 -0.860851 -2.081884
 23
 138.769121
  H 1.013352 0.383598 1.023979
  C 2.091411 0.420683 1.107902
  C 2.669982 0.926585 2.345158
  H 1.904312 1.213707 3.059242
  C 2.828277 -0.027030 0.000371
  C 4.164408 -0.058648 -0.087310
  C 5.678980 -1.219249 -2.982981
  C 4.964511 -1.694078 -4.171441
  C 3.443033 -1.641635 -4.045395
  C 2.772954 -2.149277 -5.316923
  O 6.957613 -1.220863 -2.987474
  H 3.311184 1.787701 2.144793
  H 3.318541 0.175128 2.800626
  H 2.249366 -0.372518 -0.849826
  H 4.974293 0.202867 0.560060
  H 5.292374 -2.719814 -4.385806
  H 5.294539 -1.101048 -5.034593
  H 3.131587 -0.614310 -3.858623
  H 3.129396 -2.256196 -3.202114
  H 3.056324 -1.542906 -6.174528
  H 1.691221 -2.108693 -5.219244
  H 3.054069 -3.180515 -5.519514
  H 7.383906 -0.894232 -2.167305
