 17
 0.000000
  C 0.990543 0.133001 0.380763
  C 2.462227 0.137020 0.394225
  C 3.184970 0.614919 1.583762
  H 2.517976 0.934364 2.376826
  C 3.125904 -0.319613 -0.740129
  C 4.511736 -0.381413 -0.895641
  C 5.114680 -0.842882 -2.045601
  H 4.563789 -1.192201 -2.910983
  O 6.399009 -0.913880 -2.230467
  H 0.561702 0.505433 1.305504
  H 0.619489 -0.877038 0.198039
  H 0.621254 0.736255 -0.450498
  H 3.837560 1.447878 1.317423
  H 3.836284 -0.171367 1.968727
  H 2.515046 -0.652589 -1.568346
  H 5.144920 -0.053768 -0.082126
  H 6.935545 -0.605743 -1.471896
 17
 9.540002
  C 0.958203 0.149652 0.421677
  C 2.418965 0.160092 0.451726
  C 3.146807 0.632108 1.626933
  H 2.481489 0.952223 2.421472
  C 3.165617 -0.347516 -0.808973
  C 4.542596 -0.399465 -0.940431
  C 5.158377 -0.859313 -2.086156
  H 4.607390 -1.208991 -2.951259
  O 6.445160 -0.928119 -2.266466
  H 0.521077 0.520712 1.342838
  H 0.592361 -0.861956 0.233811
  H 0.594424 0.750616 -0.414410
  H 3.801054 1.463583 1.357496
  H 3.799580 -0.155434 2.008636
  H 2.558224 -0.679698 -1.635044
  H 5.164366 -0.068412 -0.118866
  H 6.978223 -0.618756 -1.506707
 17
 28.677685
  C 0.922299 0.159948 0.447344
  C 2.369504 0.183745 0.510168
  C 3.157495 0.636614 1.638128
  H 2.526437 0.966453 2.457660
  C 3.184180 -0.377633 -0.884549
  C 4.545646 -0.408566 -0.964080
  C 5.184536 -0.859755 -2.087388
  H 4.635705 -1.209978 -2.953254
  O 6.470429 -0.922124 -2.250656
  H 0.468122 0.528205 1.361869
  H 0.567256 -0.851445 0.244240
  H 0.569169 0.750234 -0.399480
  H 3.816392 1.453302 1.341811
  H 3.815443 -0.158730 1.989700
  H 2.553619 -0.700934 -1.688028
  H 5.141010 -0.072128 -0.129557
  H 6.989426 -0.609583 -1.482648
 17
 50.041312
  C 0.876756 0.173182 0.479965
  C 2.314710 0.208591 0.571385
  C 3.161892 0.641936 1.651706
  H 2.573361 0.981647 2.497711
  C 3.188204 -0.408336 -0.961859
  C 4.547645 -0.421108 -0.997042
  C 5.227186 -0.867963 -2.107304
  H 4.691125 -1.223268 -2.983578
  O 6.535711 -0.918552 -2.240714
  H 0.410044 0.538937 1.388690
  H 0.530191 -0.838131 0.271444
  H 0.531922 0.759744 -0.370582
  H 3.822224 1.443679 1.325556
  H 3.821624 -0.163486 1.970384
  H 2.517135 -0.717534 -1.728977
  H 5.115777 -0.077733 -0.147670
  H 7.031717 -0.598303 -1.454278
 17
 71.657024
  C 0.840440 0.189916 0.521091
  C 2.267516 0.232138 0.630040
  C 3.142428 0.654649 1.683806
  H 2.575885 1.002393 2.549831
  C 3.209514 -0.438671 -1.036756
  C 4.557705 -0.439996 -1.044021
  C 5.277377 -0.884380 -2.148074
  H 4.769740 -1.243036 -3.031711
  O 6.586569 -0.920592 -2.246748
  H 0.358816 0.555910 1.430305
  H 0.499527 -0.829826 0.307001
  H 0.501460 0.778737 -0.339306
  H 3.807102 1.454253 1.337370
  H 3.806221 -0.163222 1.986241
  H 2.512767 -0.742423 -1.789782
  H 5.104596 -0.089805 -0.178793
  H 7.052160 -0.596167 -1.449704
 17
 91.140183
  C 0.801729 0.209434 0.569200
  C 2.220886 0.255600 0.688478
  C 3.101878 0.671982 1.727118
  H 2.547446 1.020907 2.595585
  C 3.239257 -0.467666 -1.107980
  C 4.592971 -0.462860 -1.100138
  C 5.328442 -0.902193 -2.192287
  H 4.833032 -1.264832 -3.085531
  O 6.636011 -0.930096 -2.271719
  H 0.313948 0.572632 1.471254
  H 0.467127 -0.805907 0.353526
  H 0.469241 0.794012 -0.289369
  H 3.763125 1.464290 1.375521
  H 3.762108 -0.144422 2.021057
  H 2.540718 -0.767889 -1.852333
  H 5.127691 -0.110517 -0.229533
  H 7.086463 -0.602856 -1.468152
 17
 108.210555
  C 0.755660 0.226630 0.611562
  C 2.175894 0.278583 0.745894
  C 3.072332 0.692755 1.779112
  H 2.527169 1.046363 2.658451
  C 3.272613 -0.496685 -1.179282
  C 4.614578 -0.485120 -1.154674
  C 5.374045 -0.920909 -2.238807
  H 4.897371 -1.285861 -3.137745
  O 6.688703 -0.939357 -2.296161
  H 0.253679 0.589497 1.512499
  H 0.426156 -0.793967 0.391343
  H 0.428558 0.811897 -0.253975
  H 3.736469 1.484812 1.418701
  H 3.735095 -0.129612 2.066922
  H 2.565462 -0.796254 -1.922076
  H 5.134932 -0.129417 -0.275533
  H 7.121517 -0.608941 -1.485038
 17
 122.325923
  C 0.717546 0.247111 0.661762
  C 2.126787 0.303050 0.807100
  C 3.032183 0.708903 1.819681
  H 2.503887 1.065259 2.704589
  C 3.296781 -0.525536 -1.249149
  C 4.644037 -0.507802 -1.209452
  C 5.421607 -0.937199 -2.279301
  H 4.960752 -1.305508 -3.186704
  O 6.735934 -0.945602 -2.314226
  H 0.206971 0.607499 1.555837
  H 0.394472 -0.771724 0.439229
  H 0.397400 0.829526 -0.204412
  H 3.693962 1.493995 1.450213
  H 3.692050 -0.114964 2.096822
  H 2.584622 -0.820854 -1.981427
  H 5.151684 -0.149869 -0.324446
  H 7.152007 -0.611130 -1.493667
 17
 133.423053
  C 0.669758 0.267343 0.711268
  C 2.080778 0.326111 0.864862
  C 2.987831 0.733774 1.882100
  H 2.464397 1.094380 2.776543
  C 3.336096 -0.553299 -1.316573
  C 4.672373 -0.532019 -1.267924
  C 5.470130 -0.958489 -2.331974
  H 5.025699 -1.329244 -3.245614
  O 6.786765 -0.958402 -2.348742
  H 0.141936 0.627239 1.603250
  H 0.353710 -0.754859 0.483680
  H 0.357233 0.848666 -0.161080
  H 3.651811 1.517882 1.507300
  H 3.649375 -0.093284 2.155206
  H 2.623541 -0.850721 -2.054039
  H 5.169485 -0.171632 -0.376605
  H 7.188151 -0.621781 -1.523663
 17
 139.031529
  C 0.620668 0.300011 0.793121
  C 2.033714 0.347874 0.918841
  C 2.888731 0.770382 1.973139
  H 2.372233 1.133396 2.874598
  C 3.393055 -0.577347 -1.378771
  C 4.733631 -0.561848 -1.343884
  C 5.541854 -0.988669 -2.407044
  H 5.099978 -1.362010 -3.326352
  O 6.834966 -0.988841 -2.422318
  H 0.060242 0.653892 1.671135
  H 0.325631 -0.723638 0.551938
  H 0.328699 0.873393 -0.089538
  H 3.553817 1.548076 1.591942
  H 3.552109 -0.056093 2.236599
  H 2.709424 -0.887078 -2.145229
  H 5.231644 -0.200484 -0.451171
  H 7.242324 -0.653576 -1.600514
 17
 141.927373
  C 0.566903 0.327384 0.861061
  C 1.981820 0.372148 0.979391
  C 2.802205 0.804848 2.059035
  H 2.269328 1.163167 2.948667
  C 3.446944 -0.599290 -1.432743
  C 4.795384 -0.587925 -1.407851
  C 5.596630 -1.015036 -2.472856
  H 5.149759 -1.386334 -3.387932
  O 6.881435 -1.018506 -2.497285
  H 0.002178 0.679017 1.733376
  H 0.276105 -0.700768 0.616046
  H 0.279407 0.901486 -0.027432
  H 3.471490 1.588809 1.686271
  H 3.469677 -0.020191 2.332967
  H 2.790464 -0.918320 -2.222214
  H 5.298712 -0.227039 -0.515913
  H 7.304125 -0.684358 -1.677915
 17
 143.747844
  C 0.509917 0.354575 0.928193
  C 1.927392 0.398154 1.044306
  C 2.714907 0.840095 2.146965
  H 2.162765 1.194828 3.027201
  C 3.502856 -0.618611 -1.479453
  C 4.856477 -0.611660 -1.465244
  C 5.648667 -1.039578 -2.534135
  H 5.191512 -1.410327 -3.448637
  O 6.926067 -1.047186 -2.570902
  H -0.061804 0.705121 1.797408
  H 0.225010 -0.672422 0.680120
  H 0.228672 0.925826 0.038222
  H 3.385039 1.625787 1.785748
  H 3.383067 0.021659 2.430663
  H 2.874684 -0.947417 -2.293154
  H 5.364753 -0.252207 -0.576260
  H 7.363458 -0.716427 -1.759764
 17
 145.065550
  C 0.451923 0.380069 0.990597
  C 1.867633 0.426453 1.115055
  C 2.640792 0.871528 2.225662
  H 2.076349 1.223294 3.097708
  C 3.545057 -0.637711 -1.524343
  C 4.902780 -0.631417 -1.511877
  C 5.689582 -1.058536 -2.581461
  H 5.226305 -1.427152 -3.491258
  O 6.967430 -1.067741 -2.625672
  H -0.123379 0.729576 1.856312
  H 0.170450 -0.647735 0.739491
  H 0.174839 0.949827 0.097684
  H 3.313183 1.659248 1.871477
  H 3.310682 0.056210 2.516220
  H 2.932411 -0.971006 -2.349113
  H 5.412323 -0.272444 -0.623747
  H 7.414150 -0.737775 -1.816636
 17
 146.145202
  C 0.389612 0.406328 1.054775
  C 1.804360 0.456362 1.189663
  C 2.567853 0.903316 2.305135
  H 1.994254 1.253294 3.172007
  C 3.583330 -0.655368 -1.565349
  C 4.942351 -0.648865 -1.552453
  C 5.727135 -1.074966 -2.622482
  H 5.258983 -1.443290 -3.532152
  O 7.005484 -1.084280 -2.670714
  H -0.191356 0.754912 1.917358
  H 0.112273 -0.620900 0.800835
  H 0.117289 0.973758 0.160053
  H 3.241317 1.691112 1.956581
  H 3.238352 0.091527 2.600140
  H 2.983259 -0.992087 -2.398521
  H 5.451152 -0.290162 -0.664458
  H 7.456265 -0.755148 -1.863853
