 29
 0.000000
  C 0.955493 0.142593 0.407624
  C 2.431174 0.138458 0.396543
  C 3.225189 0.605334 1.557225
  C 2.459817 1.097462 2.781630
  H 3.144925 1.407426 3.552463
  C 3.040280 -0.328166 -0.764433
  C 4.416911 -0.409936 -0.969151
  C 5.108392 -0.859240 -2.089759
  C 4.617564 -1.382240 -3.394310
  C 3.129746 -1.502779 -3.695967
  C 2.929922 -2.065792 -5.100443
  O 6.427605 -0.850535 -2.068460
  H 0.535008 0.514957 1.333792
  H 0.580824 -0.867286 0.236201
  H 0.580311 0.752453 -0.415137
  H 3.883100 1.413835 1.219759
  H 3.883445 -0.211476 1.873275
  H 1.825169 0.304916 3.177644
  H 1.824940 1.943441 2.518965
  H 2.370906 -0.642706 -1.546342
  H 5.042406 -0.080063 -0.148426
  H 5.081687 -2.367466 -3.517667
  H 5.082252 -0.755477 -4.164099
  H 2.651492 -0.524238 -3.647074
  H 2.651061 -2.176351 -2.984781
  H 3.377657 -1.415843 -5.848556
  H 1.869866 -2.154935 -5.323511
  H 3.377306 -3.052699 -5.192327
  H 6.819666 -0.519191 -1.240106
 29
 5.350159
  C 0.990035 0.105765 0.317160
  C 2.465880 0.119233 0.349085
  C 3.206534 0.602159 1.548433
  C 2.391442 1.082173 2.742586
  H 3.060135 1.401845 3.536572
  C 3.142063 -0.321309 -0.746535
  C 4.508088 -0.412676 -0.975026
  C 5.162915 -0.865224 -2.103669
  C 4.623951 -1.378886 -3.385207
  C 3.124099 -1.474707 -3.626516
  C 2.859596 -2.033866 -5.022100
  O 6.477889 -0.870639 -2.117755
  H 0.541739 0.473559 1.231572
  H 0.630653 -0.908644 0.133212
  H 0.629800 0.709713 -0.518027
  H 3.865956 1.417623 1.231339
  H 3.866800 -0.205043 1.884285
  H 1.759326 0.287760 3.132849
  H 1.758640 1.925099 2.474241
  H 2.368805 -0.585469 -1.402549
  H 5.150989 -0.087435 -0.165609
  H 5.070559 -2.370087 -3.525798
  H 5.071544 -0.759931 -4.171527
  H 2.666234 -0.488220 -3.557316
  H 2.665104 -2.139834 -2.895317
  H 3.288424 -1.391188 -5.787435
  H 1.790467 -2.105942 -5.203722
  H 3.287381 -3.027657 -5.131578
  H 6.899598 -0.543587 -1.300792
 29
 15.280786
  C 1.026339 0.083483 0.256737
  C 2.501079 0.113723 0.334038
  C 3.179204 0.610080 1.570630
  C 2.311114 1.075535 2.729634
  H 2.953154 1.406387 3.554657
  C 3.232413 -0.320702 -0.747158
  C 4.581801 -0.414894 -0.981135
  C 5.229488 -0.876109 -2.132691
  C 4.641704 -1.390551 -3.413875
  C 3.130718 -1.460612 -3.589745
  C 2.790607 -2.015204 -4.972344
  O 6.549603 -0.889446 -2.169700
  H 0.553140 0.446251 1.159207
  H 0.677769 -0.931515 0.066715
  H 0.678666 0.685417 -0.582642
  H 3.842993 1.431151 1.279542
  H 3.842759 -0.184535 1.928085
  H 1.683634 0.274302 3.102537
  H 1.684335 1.912739 2.445031
  H 2.349693 -0.528582 -1.266271
  H 5.223004 -0.092484 -0.175947
  H 5.069040 -2.387192 -3.571277
  H 5.069690 -0.780138 -4.216959
  H 2.698122 -0.467052 -3.495547
  H 2.697454 -2.113196 -2.835024
  H 3.195535 -1.381090 -5.757328
  H 1.713132 -2.067869 -5.104819
  H 3.194802 -3.016439 -5.101241
  H 6.990399 -0.560770 -1.353503
 29
 28.814342
  C 1.022838 0.075516 0.231263
  C 2.502372 0.107726 0.317087
  C 3.164971 0.608846 1.570895
  C 2.287918 1.074664 2.731461
  H 2.918046 1.400612 3.548570
  C 3.264698 -0.319835 -0.748379
  C 4.616105 -0.420547 -0.997068
  C 5.245230 -0.883827 -2.154784
  C 4.648399 -1.389357 -3.411767
  C 3.136880 -1.453204 -3.569472
  C 2.779742 -2.006397 -4.945706
  O 6.558888 -0.903819 -2.210268
  H 0.546847 0.438426 1.135842
  H 0.668397 -0.947092 0.042017
  H 0.670880 0.685980 -0.611730
  H 3.833713 1.431408 1.284474
  H 3.831559 -0.185716 1.931626
  H 1.654837 0.267274 3.105083
  H 1.657566 1.918771 2.444192
  H 2.307022 -0.478910 -1.149203
  H 5.278910 -0.097957 -0.189579
  H 5.070303 -2.388046 -3.572214
  H 5.070061 -0.780032 -4.219114
  H 2.709060 -0.455605 -3.468876
  H 2.709587 -2.103967 -2.806388
  H 3.178670 -1.373984 -5.736035
  H 1.700656 -2.055010 -5.066085
  H 3.178973 -3.009642 -5.078668
  H 7.003538 -0.582177 -1.413617
 29
 43.914558
  C 1.052626 0.053147 0.176434
  C 2.534556 0.095719 0.287689
  C 3.136422 0.608189 1.568942
  C 2.216025 1.061513 2.697955
  H 2.813815 1.396693 3.537497
  C 3.349670 -0.329394 -0.771111
  C 4.693638 -0.423768 -1.003936
  C 5.304843 -0.889320 -2.168070
  C 4.656008 -1.392535 -3.419784
  C 3.139039 -1.429002 -3.509176
  C 2.707874 -1.975095 -4.868345
  O 6.617482 -0.918483 -2.246850
  H 0.565486 0.413938 1.075496
  H 0.702304 -0.967290 -0.013209
  H 0.704539 0.661391 -0.665463
  H 3.803996 1.440441 1.303635
  H 3.802036 -0.178561 1.951874
  H 1.583927 0.247720 3.050392
  H 1.586472 1.895368 2.390744
  H 2.354505 -0.449449 -1.074346
  H 5.355506 -0.106808 -0.210133
  H 5.054625 -2.395034 -3.597217
  H 5.054270 -0.791876 -4.241955
  H 2.736854 -0.425568 -3.387703
  H 2.737459 -2.069803 -2.727148
  H 3.081163 -1.350183 -5.676475
  H 1.623842 -2.003686 -4.938823
  H 3.081570 -2.985210 -5.019757
  H 7.076458 -0.599341 -1.456555
 29
 57.010521
  C 1.026757 0.059317 0.196321
  C 2.508455 0.097342 0.293518
  C 3.127778 0.608898 1.568780
  C 2.227387 1.067908 2.710535
  H 2.841523 1.400120 3.540087
  C 3.332216 -0.330852 -0.771378
  C 4.681948 -0.426138 -1.007395
  C 5.290164 -0.892200 -2.173557
  C 4.654273 -1.392846 -3.420266
  C 3.139293 -1.436077 -3.528439
  C 2.727856 -1.983440 -4.892244
  O 6.598995 -0.921421 -2.251947
  H 0.552998 0.421960 1.098966
  H 0.668986 -0.958838 0.012988
  H 0.670030 0.668635 -0.640190
  H 3.796601 1.436393 1.293499
  H 3.795535 -0.180092 1.942224
  H 1.596311 0.257866 3.074435
  H 1.597988 1.905963 2.413113
  H 2.295857 -0.413344 -0.979540
  H 5.355271 -0.110123 -0.215962
  H 5.058669 -2.393757 -3.593743
  H 5.058976 -0.790445 -4.238013
  H 2.730872 -0.432765 -3.411064
  H 2.730655 -2.079623 -2.750029
  H 3.108504 -1.356473 -5.695768
  H 1.644872 -2.016839 -4.976061
  H 3.108125 -2.992085 -5.039308
  H 7.065984 -0.595855 -1.444591
 29
 68.142635
  C 1.002408 0.062131 0.209935
  C 2.484228 0.092671 0.284162
  C 3.126399 0.607424 1.561736
  C 2.244190 1.069319 2.708835
  H 2.872414 1.402321 3.536462
  C 3.306343 -0.341766 -0.793578
  C 4.659157 -0.427851 -1.007305
  C 5.279320 -0.889740 -2.164810
  C 4.655078 -1.391130 -3.415797
  C 3.140972 -1.437439 -3.534011
  C 2.739761 -1.984474 -4.899683
  O 6.598560 -0.914732 -2.232415
  H 0.548758 0.428890 1.121091
  H 0.635159 -0.953047 0.034356
  H 0.634665 0.672341 -0.620013
  H 3.794625 1.429643 1.276990
  H 3.794882 -0.182788 1.925680
  H 1.618143 0.266449 3.077403
  H 1.618650 1.903916 2.418270
  H 2.246008 -0.390881 -0.917374
  H 5.327309 -0.110165 -0.210065
  H 5.064374 -2.391579 -3.586746
  H 5.065609 -0.786747 -4.230725
  H 2.730354 -0.434460 -3.417479
  H 2.728880 -2.082099 -2.756940
  H 3.124489 -1.356483 -5.700163
  H 1.657687 -2.020009 -4.990537
  H 3.123137 -2.992035 -5.044615
  H 7.046954 -0.594399 -1.437135
 29
 77.283082
  C 0.974001 0.060069 0.237045
  C 2.470706 0.088405 0.280506
  C 3.124355 0.606298 1.537722
  C 2.252546 1.075385 2.698287
  H 2.889345 1.410079 3.511485
  C 3.292993 -0.359885 -0.815122
  C 4.651724 -0.436320 -1.005019
  C 5.284962 -0.892799 -2.158792
  C 4.665732 -1.390832 -3.414957
  C 3.145885 -1.433441 -3.534431
  C 2.740665 -1.977062 -4.904456
  O 6.597309 -0.915715 -2.216228
  H 0.544715 0.430917 1.150588
  H 0.599371 -0.953774 0.076482
  H 0.589386 0.667234 -0.585788
  H 3.788438 1.429211 1.243275
  H 3.796285 -0.182860 1.898789
  H 1.627549 0.269667 3.082261
  H 1.619713 1.914974 2.411547
  H 2.211013 -0.380018 -0.865908
  H 5.312494 -0.120398 -0.197475
  H 5.073946 -2.394537 -3.587451
  H 5.078957 -0.782329 -4.228934
  H 2.737436 -0.429721 -3.413745
  H 2.732053 -2.077508 -2.758324
  H 3.126640 -1.347920 -5.704071
  H 1.657777 -2.009399 -4.994903
  H 3.121175 -2.985773 -5.052663
  H 7.043899 -0.592847 -1.406436
 29
 84.231044
  C 0.944183 -0.023093 0.293959
  C 2.447710 0.057345 0.276812
  C 3.130978 0.656078 1.491328
  C 2.279124 1.144482 2.654203
  H 2.931625 1.531534 3.434799
  C 3.257814 -0.419549 -0.804149
  C 4.620803 -0.496110 -0.973984
  C 5.265303 -0.925512 -2.127490
  C 4.663265 -1.386232 -3.404661
  C 3.149318 -1.406786 -3.548659
  C 2.758919 -1.910763 -4.933719
  O 6.583642 -0.963021 -2.165103
  H 0.542130 0.381878 1.214897
  H 0.589788 -1.055075 0.195555
  H 0.509535 0.537244 -0.539474
  H 3.758453 1.487575 1.150289
  H 3.832956 -0.101124 1.856545
  H 1.693352 0.339446 3.086089
  H 1.615652 1.949785 2.355487
  H 2.163887 -0.446626 -0.793542
  H 5.274774 -0.219379 -0.144567
  H 5.063806 -2.388511 -3.595894
  H 5.096242 -0.762109 -4.194606
  H 2.751913 -0.404454 -3.409699
  H 2.716968 -2.062471 -2.796491
  H 3.164250 -1.267822 -5.710759
  H 1.678395 -1.927603 -5.041326
  H 3.129352 -2.919041 -5.100333
  H 7.016900 -0.666189 -1.343856
 29
 86.666717
  C 0.955487 -0.239688 0.325815
  C 2.463542 -0.044064 0.235223
  C 3.134152 0.756714 1.364637
  C 2.242933 1.283244 2.471594
  H 2.866358 1.799795 3.197653
  C 3.302981 -0.569055 -0.734067
  C 4.667070 -0.667153 -0.917213
  C 5.300195 -1.013838 -2.075062
  C 4.672955 -1.359218 -3.367445
  C 3.158640 -1.309092 -3.462517
  C 2.699561 -1.697432 -4.861045
  O 6.608444 -1.090945 -2.128537
  H 0.565917 0.250889 1.207387
  H 0.669072 -1.291380 0.378548
  H 0.457054 0.197129 -0.539478
  H 3.682830 1.599425 0.937902
  H 3.884476 0.088333 1.790198
  H 1.729856 0.480743 2.990655
  H 1.515289 2.000068 2.101355
  H 2.180426 -0.658925 -0.717449
  H 5.305372 -0.496397 -0.051019
  H 5.027696 -2.357645 -3.639701
  H 5.107264 -0.689053 -4.116073
  H 2.808236 -0.302477 -3.240119
  H 2.724473 -2.003262 -2.743960
  H 3.104970 -1.017086 -5.606252
  H 1.616528 -1.664427 -4.928670
  H 3.022443 -2.704234 -5.108954
  H 7.053850 -0.863282 -1.293430
 29
 88.279944
  C 0.945172 -0.321947 0.351487
  C 2.465882 -0.083875 0.241198
  C 3.110632 0.807279 1.332863
  C 2.198534 1.362676 2.408380
  H 2.807288 1.936341 3.097715
  C 3.347234 -0.627983 -0.667730
  C 4.708426 -0.739700 -0.880645
  C 5.337049 -1.059959 -2.072290
  C 4.684221 -1.350630 -3.378992
  C 3.164247 -1.265814 -3.439542
  C 2.661949 -1.596293 -4.843730
  O 6.661560 -1.157302 -2.148552
  H 0.552948 0.215641 1.207849
  H 0.695190 -1.367322 0.478218
  H 0.427538 0.053860 -0.525147
  H 3.625890 1.638500 0.849118
  H 3.874307 0.183960 1.801606
  H 1.711339 0.567648 2.983905
  H 1.447406 2.041612 1.999853
  H 2.178538 -0.749278 -0.654985
  H 5.342186 -0.612864 -0.010676
  H 5.013031 -2.345540 -3.684165
  H 5.117637 -0.658723 -4.105526
  H 2.842444 -0.254886 -3.172873
  H 2.731079 -1.983217 -2.729637
  H 3.064589 -0.899347 -5.573966
  H 1.575735 -1.538398 -4.884521
  H 2.959140 -2.604707 -5.135247
  H 7.120736 -0.965320 -1.310312
 29
 88.768177
  C 1.009839 -0.481194 0.381118
  C 2.514013 -0.145031 0.252978
  C 3.068722 0.896081 1.260273
  C 2.091069 1.482216 2.263568
  H 2.644199 2.171086 2.907281
  C 3.450654 -0.717527 -0.574908
  C 4.788405 -0.873180 -0.842256
  C 5.360832 -1.150209 -2.051738
  C 4.661257 -1.330369 -3.353940
  C 3.147266 -1.176017 -3.369641
  C 2.597066 -1.401148 -4.774022
  O 6.677640 -1.296564 -2.172181
  H 0.581257 0.111670 1.171560
  H 0.833302 -1.533119 0.621163
  H 0.475841 -0.235582 -0.536289
  H 3.529569 1.712868 0.700066
  H 3.866724 0.378395 1.793393
  H 1.660601 0.722459 2.899042
  H 1.301933 2.053811 1.783962
  H 2.272733 -0.897754 -0.552732
  H 5.453521 -0.810081 0.022061
  H 4.935852 -2.322243 -3.728846
  H 5.109906 -0.618764 -4.055285
  H 2.876211 -0.173893 -3.039545
  H 2.701744 -1.909182 -2.701782
  H 3.013609 -0.677860 -5.476835
  H 1.515410 -1.295347 -4.781317
  H 2.841376 -2.397563 -5.128091
  H 7.169294 -1.177010 -1.327525
 29
 90.506069
  C 1.050914 -0.581873 0.412073
  C 2.535204 -0.166716 0.274151
  C 3.027367 0.963592 1.213734
  C 2.010613 1.576899 2.183554
  H 2.525863 2.339423 2.779990
  C 3.510303 -0.744326 -0.493133
  C 4.836866 -0.940103 -0.796860
  C 5.377444 -1.205576 -2.045507
  C 4.646709 -1.319480 -3.348552
  C 3.136028 -1.107003 -3.337569
  C 2.557495 -1.264806 -4.754366
  O 6.669339 -1.391203 -2.190525
  H 0.586560 0.037655 1.158296
  H 0.941274 -1.628240 0.724013
  H 0.505440 -0.431421 -0.527593
  H 3.450467 1.762005 0.594362
  H 3.850752 0.531174 1.792699
  H 1.612876 0.841040 2.875386
  H 1.195325 2.070851 1.664886
  H 2.330905 -0.963318 -0.462851
  H 5.532686 -0.925819 0.057089
  H 4.877256 -2.311272 -3.763055
  H 5.110857 -0.601124 -4.037752
  H 2.902297 -0.105690 -2.972389
  H 2.664139 -1.843570 -2.689730
  H 2.994040 -0.534637 -5.438004
  H 1.477634 -1.116743 -4.746473
  H 2.759279 -2.261690 -5.148728
  H 7.161479 -1.318349 -1.376393
 29
 89.644951
  C 1.068303 -0.776861 0.603035
  C 2.504826 -0.269683 0.303049
  C 2.968934 1.027893 1.018842
  C 1.967376 1.714919 1.935223
  H 2.450506 2.591865 2.364515
  C 3.524683 -0.869064 -0.414295
  C 4.826510 -1.089972 -0.749397
  C 5.359759 -1.279533 -2.013656
  C 4.634616 -1.258061 -3.315803
  C 3.131468 -0.991740 -3.288173
  C 2.560611 -1.002085 -4.702221
  O 6.656774 -1.500456 -2.175396
  H 0.597078 -0.095048 1.300136
  H 1.071807 -1.771592 1.053547
  H 0.458778 -0.798793 -0.296002
  H 3.292912 1.745098 0.257726
  H 3.850208 0.751163 1.595950
  H 1.666648 1.076330 2.758449
  H 1.086365 2.061859 1.394349
  H 2.329918 -1.126417 -0.353027
  H 5.512281 -1.160024 0.087108
  H 4.830018 -2.217679 -3.809805
  H 5.127824 -0.504073 -3.942470
  H 2.936129 -0.017443 -2.836784
  H 2.631642 -1.766174 -2.705642
  H 3.028929 -0.231408 -5.315516
  H 1.489122 -0.814485 -4.683883
  H 2.727818 -1.963061 -5.179927
  H 7.156653 -1.518138 -1.337738
