 19
 0.000000
  C 1.022892 0.116738 0.347077
  C 2.493639 0.118168 0.341317
  C 3.226697 0.594090 1.526041
  H 2.551523 0.909166 2.313413
  C 3.143083 -0.340542 -0.801783
  C 4.532771 -0.404742 -0.962173
  C 5.168757 -0.858086 -2.089249
  C 4.554311 -1.355356 -3.317154
  H 3.471857 -1.353143 -3.305884
  H 6.249468 -0.852914 -2.082581
  H 0.609032 0.480762 1.281076
  H 0.647063 -0.890347 0.157229
  H 0.642620 0.725872 -0.474891
  H 3.881468 1.427027 1.264123
  H 3.883211 -0.187802 1.911742
  H 2.518314 -0.669655 -1.619220
  H 5.153609 -0.072789 -0.143497
  H 4.920516 -2.365726 -3.518064
  H 4.917235 -0.766542 -4.163869
 19
 0.485905
  C 1.023988 0.241602 0.311286
  C 2.486535 0.100237 0.350122
  C 3.220737 0.428744 1.580231
  H 2.552273 0.722553 2.384415
  C 3.132456 -0.349919 -0.798179
  C 4.514031 -0.293598 -1.012815
  C 5.154648 -0.724875 -2.152392
  C 4.575206 -1.459513 -3.269628
  H 3.522749 -1.685093 -3.156019
  H 6.213179 -0.514732 -2.233756
  H 0.628623 0.708023 1.209071
  H 0.554175 -0.735785 0.186165
  H 0.729571 0.821625 -0.564809
  H 3.926859 1.240326 1.398587
  H 3.822821 -0.420188 1.904744
  H 2.505980 -0.713444 -1.598873
  H 5.122838 0.178832 -0.256463
  H 5.134423 -2.386423 -3.413051
  H 4.737084 -0.899012 -4.193176
 19
 2.464054
  C 1.046968 0.347135 0.281552
  C 2.485206 0.060462 0.372387
  C 3.208756 0.293147 1.630897
  H 2.555130 0.668240 2.416067
  C 3.132510 -0.415561 -0.765876
  C 4.480646 -0.200785 -1.063276
  C 5.114988 -0.614010 -2.210425
  C 4.602521 -1.544725 -3.216197
  H 3.619001 -1.939544 -2.992318
  H 6.107807 -0.226081 -2.395280
  H 0.675871 0.864635 1.163184
  H 0.475876 -0.573461 0.147917
  H 0.858151 0.949742 -0.609267
  H 4.030263 0.998383 1.482241
  H 3.683710 -0.632606 1.966295
  H 2.516582 -0.885914 -1.514813
  H 5.047364 0.424009 -0.387710
  H 5.309872 -2.371425 -3.327153
  H 4.593253 -1.057268 -4.193686
 19
 5.775410
  C 1.083093 0.460644 0.248254
  C 2.487761 0.044360 0.384519
  C 3.195025 0.190307 1.661027
  H 2.563711 0.607760 2.437292
  C 3.138014 -0.462960 -0.745090
  C 4.426147 -0.103964 -1.133229
  C 5.062579 -0.524787 -2.276783
  C 4.634670 -1.594241 -3.177470
  H 3.720487 -2.087527 -2.868861
  H 5.984180 -0.026479 -2.544759
  H 0.744013 1.025718 1.109153
  H 0.424499 -0.400318 0.115233
  H 0.988076 1.061910 -0.657512
  H 4.086522 0.810319 1.542243
  H 3.574464 -0.781330 1.982959
  H 2.547725 -1.070346 -1.420462
  H 4.924615 0.654760 -0.544455
  H 5.433924 -2.332696 -3.255795
  H 4.518183 -1.197922 -4.187806
 19
 10.754660
  C 1.137318 0.579673 0.226676
  C 2.492894 0.047202 0.396117
  C 3.173428 0.092732 1.690618
  H 2.553305 0.518578 2.470673
  C 3.142105 -0.491547 -0.728692
  C 4.353097 -0.019488 -1.216161
  C 4.999585 -0.467203 -2.342674
  C 4.666553 -1.655101 -3.131387
  H 3.823684 -2.214063 -2.741363
  H 5.843995 0.110664 -2.695322
  H 0.830631 1.179055 1.077363
  H 0.407903 -0.223060 0.092370
  H 1.116054 1.172809 -0.688061
  H 4.106764 0.656790 1.613501
  H 3.487210 -0.912987 1.972573
  H 2.605855 -1.245815 -1.293112
  H 4.773980 0.843369 -0.717781
  H 5.539150 -2.309208 -3.178426
  H 4.468380 -1.365378 -4.164715
 19
 17.411644
  C 1.217322 0.693256 0.198133
  C 2.514112 0.055767 0.420953
  C 3.136683 0.016369 1.740811
  H 2.518340 0.467973 2.509549
  C 3.178565 -0.519767 -0.695417
  C 4.283432 0.046484 -1.302273
  C 4.930463 -0.431235 -2.419727
  C 4.671003 -1.699067 -3.111872
  H 3.890401 -2.293111 -2.649018
  H 5.707737 0.187574 -2.845723
  H 0.919338 1.316484 1.035338
  H 0.437999 -0.058923 0.043304
  H 1.263042 1.270418 -0.725696
  H 4.113189 0.510801 1.712873
  H 3.371371 -1.016292 2.003522
  H 2.726118 -1.406042 -1.125471
  H 4.633307 0.986884 -0.897359
  H 5.590482 -2.285398 -3.147521
  H 4.409140 -1.502214 -4.153115
 19
 24.544449
  C 1.310077 0.841525 0.204382
  C 2.536217 0.096192 0.431003
  C 3.084964 -0.082545 1.763635
  H 2.465565 0.355981 2.539297
  C 3.216601 -0.494480 -0.692334
  C 4.203518 0.126295 -1.423486
  C 4.865607 -0.416815 -2.506972
  C 4.671276 -1.758294 -3.079178
  H 3.927096 -2.347552 -2.554018
  H 5.606976 0.198579 -2.994184
  H 1.034888 1.460943 1.053442
  H 0.497228 0.123827 0.040548
  H 1.358952 1.419993 -0.717953
  H 4.088270 0.356386 1.797232
  H 3.262373 -1.141574 1.967819
  H 2.895757 -1.493807 -0.964801
  H 4.484996 1.129015 -1.129089
  H 5.620488 -2.298408 -3.076665
  H 4.382417 -1.671331 -4.128734
 19
 16.661819
  C 1.420930 0.967946 0.186359
  C 2.588790 0.124249 0.424622
  C 3.023198 -0.184742 1.787593
  H 2.358933 0.222793 2.539924
  C 3.273019 -0.466749 -0.674545
  C 4.123269 0.200627 -1.546477
  C 4.780966 -0.395707 -2.595529
  C 4.653679 -1.786352 -3.052966
  H 3.954057 -2.376971 -2.470875
  H 5.484410 0.212484 -3.145563
  H 1.177089 1.600889 1.033773
  H 0.578591 0.285097 0.030385
  H 1.480053 1.538961 -0.738393
  H 4.027321 0.224004 1.926086
  H 3.145465 -1.262312 1.937343
  H 3.143319 -1.538166 -0.790354
  H 4.304651 1.247724 -1.363708
  H 5.635708 -2.265256 -3.035736
  H 4.341356 -1.795089 -4.098256
 19
 10.087778
  C 1.553062 1.028752 0.153443
  C 2.639060 0.095276 0.458302
  C 2.950275 -0.252015 1.847971
  H 2.270037 0.216700 2.552273
  C 3.362482 -0.493053 -0.594062
  C 4.052043 0.208637 -1.585939
  C 4.684773 -0.390156 -2.654587
  C 4.628934 -1.800537 -3.045220
  H 4.018502 -2.415531 -2.392565
  H 5.290044 0.242585 -3.289951
  H 1.313069 1.688884 0.980523
  H 0.667005 0.413471 -0.036312
  H 1.712334 1.570533 -0.775193
  H 3.972248 0.067424 2.065358
  H 2.956309 -1.332860 1.999511
  H 3.406671 -1.575511 -0.608925
  H 4.153024 1.277577 -1.465199
  H 5.642334 -2.205375 -3.088266
  H 4.245814 -1.873510 -4.064450
 19
 5.401401
  C 1.702502 1.111323 0.120768
  C 2.707476 0.107759 0.477198
  C 2.872290 -0.310691 1.875646
  H 2.164116 0.179503 2.535615
  C 3.468842 -0.479927 -0.532896
  C 4.022919 0.209877 -1.618293
  C 4.591652 -0.396775 -2.710355
  C 4.561035 -1.821319 -3.043419
  H 4.046624 -2.434341 -2.311861
  H 5.100154 0.237497 -3.424595
  H 1.496798 1.812763 0.924250
  H 0.769743 0.569899 -0.071895
  H 1.941970 1.600950 -0.819496
  H 3.887632 -0.077543 2.201452
  H 2.781141 -1.393160 1.977513
  H 3.677258 -1.538873 -0.447090
  H 4.066116 1.288256 -1.558180
  H 5.582379 -2.183664 -3.178025
  H 4.085088 -1.949831 -4.017480
 19
 4.900160
  C 1.807312 1.105143 0.052456
  C 2.771682 0.096693 0.503463
  C 2.782269 -0.357029 1.902611
  H 2.037270 0.155568 2.502350
  C 3.641142 -0.446444 -0.437794
  C 4.058734 0.229231 -1.600746
  C 4.518164 -0.379734 -2.740051
  C 4.490097 -1.813206 -3.031238
  H 4.130486 -2.419522 -2.207284
  H 4.880353 0.254440 -3.538453
  H 1.591164 1.856533 0.805998
  H 0.862736 0.591748 -0.154745
  H 2.130050 1.514152 -0.903070
  H 3.770561 -0.199654 2.336621
  H 2.610585 -1.433438 1.959131
  H 4.028445 -1.442564 -0.263835
  H 4.091490 1.309662 -1.566337
  H 5.489150 -2.139511 -3.328339
  H 3.865833 -1.991779 -3.909013
