 26
 0.000000
  H 1.439141 0.160577 0.455900
  C 2.518220 0.146341 0.418009
  C 3.267362 0.618977 1.589896
  C 2.399616 1.085509 2.751079
  H 3.017998 1.418791 3.577246
  C 3.087433 -0.323405 -0.750540
  C 4.463222 -0.415543 -0.981688
  C 5.133082 -0.871006 -2.118031
  C 4.615503 -1.389139 -3.411155
  C 3.121917 -1.500047 -3.689686
  C 2.894739 -2.061554 -5.091182
  O 6.448383 -0.870449 -2.116958
  H 3.927059 1.439839 1.284489
  H 3.928873 -0.183144 1.937976
  H 1.761106 0.278322 3.103625
  H 1.759326 1.910606 2.446500
  H 2.409843 -0.635261 -1.525021
  H 5.099688 -0.088869 -0.168622
  H 5.070279 -2.377986 -3.543642
  H 5.071138 -0.766011 -4.189834
  H 2.650402 -0.518354 -3.633672
  H 2.649586 -2.171003 -2.971435
  H 3.333486 -1.414694 -5.847159
  H 1.830124 -2.142641 -5.294853
  H 3.332756 -3.051800 -5.191128
  H 6.854003 -0.540597 -1.291904
 26
 0.970793
  H 1.508493 -0.305563 0.657382
  C 2.571494 -0.171854 0.506425
  C 3.257796 0.735430 1.438079
  C 2.345555 1.313007 2.513199
  H 2.903091 1.978251 3.168826
  C 3.146840 -0.815255 -0.561400
  C 4.520491 -0.783031 -0.843196
  C 5.176591 -1.030326 -2.047659
  C 4.620349 -1.362256 -3.382071
  C 3.122271 -1.498629 -3.600561
  C 2.833687 -1.723925 -5.079708
  O 6.485609 -0.934945 -2.094216
  H 3.729241 1.553579 0.879222
  H 4.090266 0.199949 1.911668
  H 1.912960 0.521554 3.120913
  H 1.529282 1.883071 2.067064
  H 2.500238 -1.402910 -1.190241
  H 5.161379 -0.507582 -0.013066
  H 5.117219 -2.286638 -3.702568
  H 5.008821 -0.597833 -4.068341
  H 2.607723 -0.592338 -3.277724
  H 2.732456 -2.352064 -3.043716
  H 3.171358 -0.877492 -5.677447
  H 1.765638 -1.845342 -5.241375
  H 3.332199 -2.618154 -5.441487
  H 6.920914 -0.738660 -1.244011
 26
 4.473397
  H 1.654609 -0.765847 0.805242
  C 2.663024 -0.488394 0.533538
  C 3.223831 0.710615 1.183630
  C 2.243507 1.419163 2.104198
  H 2.709681 2.292256 2.557590
  C 3.320639 -1.246080 -0.390101
  C 4.685920 -1.086732 -0.726249
  C 5.275631 -1.096040 -1.981838
  C 4.621920 -1.251349 -3.307535
  C 3.109600 -1.381984 -3.405511
  C 2.678307 -1.418120 -4.868708
  O 6.569610 -0.896387 -2.099739
  H 3.594618 1.413276 0.429681
  H 4.112603 0.404547 1.751526
  H 1.911271 0.758028 2.900698
  H 1.368229 1.753823 1.553646
  H 2.772223 -2.039734 -0.874490
  H 5.346971 -0.894570 0.111159
  H 5.087371 -2.121111 -3.786798
  H 4.952805 -0.400649 -3.913297
  H 2.625501 -0.535894 -2.912906
  H 2.772955 -2.300058 -2.927614
  H 2.948080 -0.496655 -5.378832
  H 1.600154 -1.540574 -4.942093
  H 3.147162 -2.247441 -5.392230
  H 7.054849 -0.800399 -1.259657
 26
 9.839871
  H 1.801836 -1.045444 0.808275
  C 2.787343 -0.715739 0.504284
  C 3.202259 0.640134 0.930803
  C 2.120773 1.382311 1.704605
  H 2.477591 2.362543 2.007954
  C 3.543224 -1.519935 -0.268422
  C 4.893772 -1.264589 -0.673049
  C 5.375356 -1.085943 -1.954916
  C 4.595420 -1.095146 -3.219638
  C 3.081486 -1.224415 -3.166922
  C 2.496342 -1.207494 -4.574493
  O 6.648986 -0.825712 -2.161011
  H 3.509965 1.236829 0.064174
  H 4.102535 0.533064 1.552616
  H 1.833883 0.831043 2.597363
  H 1.235763 1.522944 1.092049
  H 3.133913 -2.475399 -0.574977
  H 5.610378 -1.204343 0.138566
  H 5.002687 -1.913387 -3.832333
  H 4.871779 -0.185832 -3.767498
  H 2.654388 -0.398895 -2.596349
  H 2.792345 -2.155553 -2.683991
  H 2.733316 -0.276584 -5.084877
  H 1.414759 -1.303855 -4.534561
  H 2.886856 -2.032157 -5.168664
  H 7.208192 -0.827247 -1.361105
 26
 14.664424
  H 1.949081 -1.241660 0.824052
  C 2.899830 -0.871265 0.471280
  C 3.201409 0.567670 0.728425
  C 2.011837 1.318696 1.303812
  H 2.273557 2.357921 1.488542
  C 3.738012 -1.690277 -0.167015
  C 5.063275 -1.377318 -0.651592
  C 5.439006 -1.050401 -1.939624
  C 4.553070 -0.974910 -3.128070
  C 3.048336 -1.054191 -2.936253
  C 2.331476 -1.048493 -4.282700
  O 6.695630 -0.782870 -2.228825
  H 3.533064 1.042472 -0.199503
  H 4.044936 0.631018 1.423984
  H 1.693049 0.878905 2.247140
  H 1.170099 1.297773 0.615113
  H 3.462935 -2.737548 -0.280933
  H 5.847104 -1.452239 0.097546
  H 4.873390 -1.775519 -3.808972
  H 4.811221 -0.053150 -3.664291
  H 2.698915 -0.206972 -2.344351
  H 2.779206 -1.967187 -2.402991
  H 2.557729 -0.142274 -4.839940
  H 1.256623 -1.093960 -4.137786
  H 2.626314 -1.903437 -4.887786
  H 7.319398 -0.851155 -1.482780
 26
 11.881035
  H 2.030801 -1.294096 0.829552
  C 2.969740 -0.924348 0.445781
  C 3.239807 0.524242 0.605600
  C 2.012905 1.310210 1.038692
  H 2.258463 2.363476 1.151935
  C 3.852445 -1.777048 -0.099919
  C 5.142953 -1.456704 -0.657833
  C 5.437948 -1.030793 -1.932133
  C 4.483693 -0.909073 -3.066112
  C 2.992658 -0.946019 -2.779050
  C 2.192954 -0.972225 -4.077233
  O 6.681427 -0.773688 -2.295169
  H 3.632604 0.909500 -0.340881
  H 4.042539 0.670963 1.341409
  H 1.638400 0.951864 1.993430
  H 1.216569 1.220091 0.305354
  H 3.647653 -2.844823 -0.033692
  H 5.979588 -1.633470 0.014423
  H 4.739227 -1.706108 -3.775186
  H 4.732664 0.013241 -3.600192
  H 2.694698 -0.074637 -2.197942
  H 2.744423 -1.835595 -2.195917
  H 2.411313 -0.097239 -4.683416
  H 1.128239 -0.977342 -3.864414
  H 2.423845 -1.858767 -4.663348
  H 7.350823 -0.899375 -1.597272
 26
 9.414728
  H 2.085236 -1.270404 0.919178
  C 3.007257 -0.914012 0.475924
  C 3.238313 0.547907 0.496080
  C 2.012441 1.345039 0.916682
  H 2.233483 2.409344 0.914060
  C 3.893181 -1.801548 -0.019743
  C 5.149089 -1.517052 -0.638261
  C 5.410500 -1.023996 -1.898652
  C 4.437435 -0.850510 -3.009209
  C 2.949237 -0.986759 -2.730732
  C 2.155553 -0.914586 -4.033916
  O 6.644497 -0.751596 -2.278173
  H 3.588655 0.863415 -0.494730
  H 4.067177 0.776201 1.176849
  H 1.696202 1.072284 1.923720
  H 1.183726 1.166015 0.241634
  H 3.730145 -2.856949 0.196708
  H 6.011202 -1.843334 -0.058341
  H 4.726511 -1.585526 -3.775078
  H 4.640928 0.120202 -3.475827
  H 2.604647 -0.191241 -2.066218
  H 2.744337 -1.943698 -2.246563
  H 2.305277 0.043435 -4.525268
  H 1.094018 -1.029613 -3.836253
  H 2.456963 -1.701789 -4.722486
  H 7.323406 -0.857822 -1.588167
 26
 7.782199
  H 2.112897 -1.259153 0.952363
  C 3.026692 -0.915357 0.488496
  C 3.250897 0.544800 0.455647
  C 2.009305 1.352425 0.799041
  H 2.220378 2.417446 0.732033
  C 3.930271 -1.827548 0.053340
  C 5.164575 -1.569229 -0.610985
  C 5.398816 -1.008675 -1.850493
  C 4.405531 -0.800372 -2.940390
  C 2.927563 -1.029741 -2.674425
  C 2.127816 -0.841805 -3.960123
  O 6.625980 -0.744167 -2.252317
  H 3.644363 0.830880 -0.526606
  H 4.050156 0.798185 1.161789
  H 1.674722 1.141395 1.811366
  H 1.192536 1.119689 0.116870
  H 3.793654 -2.861209 0.362192
  H 6.031155 -1.968789 -0.090051
  H 4.720478 -1.473389 -3.748196
  H 4.561381 0.202446 -3.345225
  H 2.548184 -0.336362 -1.928762
  H 2.769484 -2.046176 -2.305592
  H 2.214582 0.178243 -4.324834
  H 1.076306 -1.048478 -3.783384
  H 2.475365 -1.514081 -4.740628
  H 7.321499 -0.880983 -1.582508
 26
 6.790855
  H 2.138337 -1.269052 0.906344
  C 3.066885 -0.946778 0.458045
  C 3.304793 0.512168 0.403210
  C 2.041909 1.342878 0.596347
  H 2.269608 2.401755 0.504776
  C 3.979417 -1.886426 0.082474
  C 5.185160 -1.663356 -0.622733
  C 5.384015 -0.989428 -1.818472
  C 4.367150 -0.732021 -2.877189
  C 2.899625 -1.053546 -2.632021
  C 2.092968 -0.812128 -3.903929
  O 6.593732 -0.674459 -2.225029
  H 3.810237 0.776318 -0.525627
  H 4.022665 0.765605 1.191616
  H 1.610866 1.176759 1.584067
  H 1.290458 1.088385 -0.147008
  H 3.852721 -2.890339 0.473076
  H 6.049732 -2.166949 -0.206648
  H 4.705420 -1.338685 -3.727099
  H 4.482592 0.303144 -3.212984
  H 2.481350 -0.438857 -1.843910
  H 2.794157 -2.099193 -2.340202
  H 2.108240 0.243777 -4.181190
  H 1.059856 -1.107286 -3.755700
  H 2.490611 -1.389340 -4.735099
  H 7.306915 -0.849535 -1.581899
