 15
 0.000000
  C 0.887362 0.053878 0.232083
  C 2.383970 0.060278 0.112820
  C 3.250732 -0.011627 1.356242
  C 2.537680 -0.085500 2.701410
  H 3.277792 -0.131342 3.497465
  C 2.990774 0.123105 -1.065358
  H 2.489726 0.167270 -2.016331
  H 4.068604 0.121780 -1.117589
  H 0.561379 -0.026957 1.263267
  H 0.467349 -0.789116 -0.315102
  H 0.456863 0.968620 -0.171964
  H 3.903892 0.865939 1.362713
  H 3.900047 -0.887108 1.263846
  H 1.913528 -0.974109 2.769684
  H 1.916641 0.792227 2.867949
 15
 -0.573723
  C 0.908394 0.066324 0.230663
  C 2.407023 0.079254 0.130504
  C 3.263963 -0.014570 1.373439
  C 2.530901 -0.125705 2.704119
  H 3.257558 -0.213251 3.509737
  C 2.986945 0.160034 -1.057632
  H 2.410735 0.222102 -1.963909
  H 4.057182 0.172964 -1.181758
  H 0.557771 0.271005 1.243519
  H 0.522798 -0.906050 -0.072761
  H 0.487467 0.816418 -0.437885
  H 3.914674 0.862525 1.404213
  H 3.916814 -0.885096 1.264396
  H 1.893884 -1.005332 2.728104
  H 1.924670 0.757218 2.897906
 15
 -0.954672
  C 0.918524 0.072706 0.235844
  C 2.417660 0.085537 0.135813
  C 3.271375 -0.026974 1.377832
  C 2.517461 -0.169620 2.694613
  H 3.228212 -0.271180 3.512336
  C 2.976996 0.209439 -1.057211
  H 2.381936 0.250831 -1.955223
  H 4.039991 0.254684 -1.227431
  H 0.568876 0.558691 1.141518
  H 0.540032 -0.948173 0.224256
  H 0.520704 0.614818 -0.619862
  H 3.916203 0.854954 1.433447
  H 3.929356 -0.892467 1.255996
  H 1.881135 -1.051385 2.686048
  H 1.902551 0.704822 2.894221
 15
 -0.348564
  C 0.927924 0.065317 0.242020
  C 2.425035 0.088075 0.140947
  C 3.278624 -0.039356 1.378621
  C 2.508635 -0.211348 2.682931
  H 3.206307 -0.316683 3.511050
  C 2.961971 0.277682 -1.053484
  H 2.373896 0.229779 -1.954998
  H 4.019582 0.397128 -1.229052
  H 0.579188 0.793499 0.971852
  H 0.547598 -0.914252 0.518652
  H 0.566247 0.383216 -0.732108
  H 3.917485 0.845632 1.456749
  H 3.943112 -0.897613 1.243193
  H 1.882756 -1.099582 2.650820
  H 1.877317 0.650823 2.882132
 15
 7.432443
  C 0.931113 0.035798 0.238378
  C 2.430311 0.132208 0.163042
  C 3.284284 -0.042473 1.380950
  C 2.510713 -0.243752 2.680078
  H 3.203823 -0.373707 3.507890
  C 2.932710 0.359757 -1.041487
  H 2.431154 0.022331 -1.935002
  H 3.950138 0.665846 -1.234204
  H 0.555523 0.918089 0.766518
  H 0.532197 -0.852087 0.719459
  H 0.617429 0.224578 -0.788150
  H 3.938047 0.829148 1.488037
  H 3.934603 -0.905311 1.206750
  H 1.884620 -1.125675 2.626549
  H 1.882626 0.615302 2.894654
 15
 26.316622
  C 0.913300 0.073158 0.242135
  C 2.416206 0.094470 0.187196
  C 3.294479 -0.048240 1.389288
  C 2.538494 -0.303952 2.686922
  H 3.223810 -0.306479 3.536120
  C 2.851730 0.368662 -1.048454
  H 2.505859 -0.211834 -1.885185
  H 3.832577 0.794237 -1.252797
  H 0.523051 1.030582 0.607533
  H 0.459949 -0.747443 0.777765
  H 0.758139 0.285611 -0.821391
  H 3.877879 0.874460 1.502979
  H 4.016440 -0.840255 1.204313
  H 2.024617 -1.263494 2.652511
  H 1.794449 0.467123 2.846813
 15
 54.128250
  C 0.913253 0.009934 0.218629
  C 2.394936 0.117813 0.236005
  C 3.304354 -0.035371 1.410556
  C 2.571034 -0.285399 2.722705
  H 3.286694 -0.459341 3.523268
  C 2.753992 0.432041 -1.036439
  H 2.585142 -0.320256 -1.789716
  H 3.678247 0.967532 -1.279606
  H 0.394573 0.960464 0.382674
  H 0.414523 -0.774891 0.764099
  H 0.949884 0.288947 -0.918785
  H 3.943549 0.851010 1.493635
  H 3.966181 -0.882037 1.206349
  H 1.941539 -1.169895 2.645182
  H 1.952768 0.570649 2.990984
 15
 75.776329
  C 0.920305 0.022808 0.266273
  C 2.335065 0.076958 0.270907
  C 3.281696 -0.081478 1.412946
  C 2.593612 -0.317557 2.751284
  H 3.330997 -0.412430 3.545366
  C 2.677925 0.424823 -1.056953
  H 2.598871 -0.347676 -1.811035
  H 3.547721 1.055307 -1.255185
  H 0.376426 0.955382 0.239826
  H 0.392299 -0.708311 0.879944
  H 1.227097 0.392243 -1.116490
  H 3.886284 0.831803 1.461778
  H 3.978640 -0.902055 1.208893
  H 2.004659 -1.230350 2.721925
  H 1.931431 0.511846 2.989210
 15
 58.565435
  C 0.917777 0.004588 0.327444
  C 2.277583 0.061670 0.292753
  C 3.261530 -0.089027 1.411689
  C 2.616589 -0.329819 2.771996
  H 3.379883 -0.443451 3.539758
  C 2.618311 0.463503 -1.087899
  H 2.666034 -0.378393 -1.790996
  H 3.467328 1.122425 -1.232240
  H 0.335149 0.884575 0.110937
  H 0.347541 -0.674078 0.958368
  H 1.435739 0.465093 -1.272049
  H 3.873279 0.821845 1.430816
  H 3.950421 -0.918340 1.191478
  H 2.007175 -1.228441 2.750844
  H 1.974917 0.507675 3.040181
 15
 32.098194
  C 0.858267 0.036068 0.389899
  C 2.211067 0.059554 0.289894
  C 3.227133 -0.109131 1.374162
  C 2.632079 -0.371182 2.751188
  H 3.414478 -0.391846 3.506299
  C 2.625415 0.426994 -1.096348
  H 2.793044 -0.468503 -1.706459
  H 3.454967 1.110648 -1.211846
  H 0.273070 0.897407 0.123488
  H 0.349699 -0.580684 1.128079
  H 1.586958 0.603154 -1.476515
  H 3.768436 0.845463 1.388816
  H 3.968369 -0.880129 1.135719
  H 2.107688 -1.323762 2.767614
  H 1.920439 0.410754 3.007737
 15
 14.958935
  C 0.846260 0.010055 0.432986
  C 2.171110 0.039061 0.281515
  C 3.209530 -0.103868 1.351228
  C 2.653387 -0.372657 2.742624
  H 3.460662 -0.408367 3.470394
  C 2.622093 0.444127 -1.094248
  H 2.797619 -0.467648 -1.676961
  H 3.496553 1.077720 -1.151494
  H 0.181980 0.746007 0.017259
  H 0.369100 -0.549712 1.229103
  H 1.692635 0.781409 -1.553019
  H 3.743464 0.851903 1.348007
  H 3.946287 -0.875649 1.099016
  H 2.122020 -1.320673 2.767807
  H 1.959284 0.413555 3.031417
 15
 1.506515
  C 0.804470 0.060772 0.498006
  C 2.112282 0.093946 0.284179
  C 3.174254 -0.069878 1.334837
  C 2.666652 -0.408377 2.729763
  H 3.500120 -0.462092 3.426751
  C 2.620979 0.425359 -1.089952
  H 2.885839 -0.513822 -1.583949
  H 3.493453 1.069859 -1.095761
  H 0.091591 0.558053 -0.136076
  H 0.388676 -0.352853 1.402714
  H 1.795301 0.821508 -1.672432
  H 3.707887 0.885692 1.366559
  H 3.900437 -0.827203 1.020363
  H 2.156301 -1.368581 2.730725
  H 1.973744 0.352881 3.079906
 15
 -3.350850
  C 0.788157 0.031534 0.518749
  C 2.087875 0.119354 0.289846
  C 3.165416 -0.106540 1.315257
  C 2.677187 -0.380410 2.732781
  H 3.527341 -0.502766 3.400880
  C 2.609530 0.468705 -1.075123
  H 2.982967 -0.430177 -1.568191
  H 3.430575 1.179639 -1.016796
  H 0.068772 0.241672 -0.257347
  H 0.370322 -0.234030 1.474391
  H 1.814399 0.880570 -1.688679
  H 3.807177 0.781103 1.323205
  H 3.788074 -0.942221 0.983384
  H 2.079274 -1.288795 2.768551
  H 2.074919 0.447626 3.094724
 15
 -3.568825
  C 0.786509 0.068251 0.534113
  C 2.084127 0.143360 0.290540
  C 3.162061 -0.087318 1.317286
  C 2.673328 -0.401855 2.724733
  H 3.523493 -0.536502 3.389923
  C 2.608709 0.449183 -1.083106
  H 3.036914 -0.449521 -1.527857
  H 3.394556 1.201373 -1.036783
  H 0.060711 0.239256 -0.244886
  H 0.385885 -0.159495 1.504586
  H 1.816150 0.809533 -1.732278
  H 3.796924 0.804484 1.350485
  H 3.794197 -0.910502 0.964544
  H 2.085215 -1.315904 2.733668
  H 2.063205 0.410921 3.110665
