 13
 0.000000
  C 0.957761 -0.018027 -0.007177
  C 2.454117 0.002867 0.013960
  C 3.167408 0.812548 0.796634
  C 4.610299 0.833826 0.816447
  C 5.321481 1.640812 1.597247
  H 6.396545 1.650199 1.605660
  H 0.596608 -0.757474 -0.718767
  H 0.561342 0.953061 -0.301266
  H 0.560677 -0.272663 0.974407
  H 2.957772 -0.685835 -0.650447
  H 2.656857 1.497644 1.460851
  H 5.115351 0.145942 0.150203
  H 4.823709 2.328218 2.262995
 13
 1.136917
  C 0.978874 -0.006227 0.014372
  C 2.469352 -0.072703 -0.024161
  C 3.173843 0.752009 0.743739
  C 4.617330 0.818459 0.816500
  C 5.292141 1.677843 1.607312
  H 6.368579 1.703181 1.639323
  H 0.510882 -0.638957 -0.734382
  H 0.692122 1.032865 -0.141885
  H 0.609757 -0.300853 0.997238
  H 2.942796 -0.770226 -0.699395
  H 2.592837 1.435286 1.353381
  H 5.155600 0.120653 0.184133
  H 4.776488 2.379319 2.244156
 13
 3.939175
  C 1.006050 0.011873 0.041981
  C 2.488083 -0.130043 -0.039743
  C 3.187659 0.716863 0.709420
  C 4.620101 0.805708 0.826196
  C 5.247728 1.696587 1.588081
  H 6.319794 1.738254 1.654226
  H 0.468003 -0.469508 -0.766419
  H 0.828939 1.090969 0.063196
  H 0.643771 -0.392174 0.985308
  H 2.930487 -0.836984 -0.717476
  H 2.548494 1.410359 1.245664
  H 5.187414 0.087023 0.244422
  H 4.701670 2.416654 2.173966
 13
 8.601506
  C 1.028231 0.029820 0.064855
  C 2.499466 -0.178268 -0.054215
  C 3.197738 0.686623 0.679634
  C 4.617952 0.796137 0.827925
  C 5.213767 1.718889 1.577137
  H 6.282786 1.778938 1.668267
  H 0.435284 -0.313787 -0.786693
  H 0.972531 1.121585 0.230802
  H 0.653703 -0.457755 0.966281
  H 2.915954 -0.908194 -0.724039
  H 2.502847 1.386213 1.166365
  H 5.212044 0.062148 0.279177
  H 4.640407 2.450140 2.127488
 13
 15.293405
  C 1.038779 0.043337 0.082458
  C 2.500104 -0.211921 -0.062211
  C 3.199087 0.666393 0.655230
  C 4.620201 0.793772 0.830249
  C 5.192117 1.741415 1.568532
  H 6.263200 1.814195 1.681647
  H 0.420644 -0.170072 -0.790741
  H 1.097347 1.120686 0.369110
  H 0.641352 -0.512664 0.933651
  H 2.899957 -0.967970 -0.722033
  H 2.458647 1.361883 1.096124
  H 5.231766 0.053930 0.313714
  H 4.602344 2.476585 2.087722
 13
 24.144650
  C 1.050732 0.057054 0.098502
  C 2.500560 -0.236531 -0.060733
  C 3.205390 0.652083 0.638536
  C 4.619913 0.791850 0.831130
  C 5.173650 1.758107 1.560397
  H 6.238650 1.845690 1.681545
  H 0.432558 -0.037530 -0.792191
  H 1.206406 1.105590 0.484854
  H 0.616857 -0.552333 0.891308
  H 2.883407 -1.017792 -0.703258
  H 2.416047 1.336928 1.048802
  H 5.242729 0.053378 0.335874
  H 4.572264 2.496739 2.054680
 13
 34.558565
  C 1.055138 0.065505 0.110305
  C 2.498053 -0.253477 -0.053314
  C 3.211055 0.645537 0.626881
  C 4.625438 0.795560 0.827428
  C 5.166156 1.773237 1.549696
  H 6.229388 1.867562 1.680695
  H 0.452786 0.072738 -0.796855
  H 1.286332 1.087392 0.581528
  H 0.582071 -0.585101 0.842362
  H 2.868399 -1.059588 -0.669035
  H 2.368129 1.319985 1.016819
  H 5.257714 0.056341 0.346558
  H 4.551617 2.516919 2.035823
 13
 46.524218
  C 1.055149 0.067642 0.116978
  C 2.495945 -0.261116 -0.042624
  C 3.216652 0.644020 0.622186
  C 4.629218 0.800342 0.824739
  C 5.163368 1.784085 1.544135
  H 6.227427 1.884382 1.677944
  H 0.474019 0.142790 -0.804114
  H 1.345155 1.085088 0.649050
  H 0.547561 -0.606132 0.803099
  H 2.858040 -1.084188 -0.636150
  H 2.319062 1.309454 1.003642
  H 5.267025 0.063142 0.349626
  H 4.544843 2.526025 2.024059
 13
 58.318382
  C 1.053701 0.066154 0.121860
  C 2.492503 -0.256807 -0.037964
  C 3.220967 0.649143 0.616488
  C 4.632705 0.807174 0.820545
  C 5.163972 1.792336 1.540366
  H 6.226810 1.887768 1.684454
  H 0.482344 0.172266 -0.802255
  H 1.384801 1.096723 0.683177
  H 0.533458 -0.614614 0.788985
  H 2.851334 -1.094381 -0.615150
  H 2.273150 1.309888 0.988755
  H 5.273443 0.067576 0.352603
  H 4.543396 2.528313 2.026629
 13
 68.383237
  C 1.049650 0.061870 0.117705
  C 2.488291 -0.252979 -0.027110
  C 3.225076 0.654311 0.616878
  C 4.636143 0.812681 0.818489
  C 5.168786 1.797587 1.538079
  H 6.231605 1.890141 1.683938
  H 0.493140 0.196481 -0.811313
  H 1.400836 1.113931 0.723684
  H 0.518493 -0.629962 0.764411
  H 2.848874 -1.102912 -0.586380
  H 2.231368 1.320392 0.993858
  H 5.277339 0.072056 0.351334
  H 4.549791 2.533500 2.026222
 13
 78.025847
  C 1.040861 0.050667 0.107265
  C 2.485172 -0.244578 -0.018748
  C 3.231203 0.656004 0.624390
  C 4.641123 0.807845 0.830545
  C 5.177302 1.793168 1.547736
  H 6.241870 1.897365 1.671053
  H 0.501123 0.206614 -0.825182
  H 1.400705 1.144321 0.767736
  H 0.502239 -0.652450 0.735512
  H 2.849419 -1.099916 -0.566202
  H 2.186945 1.346172 1.014667
  H 5.282070 0.072729 0.353574
  H 4.562962 2.546782 2.013347
 13
 88.318874
  C 1.031371 0.031647 0.096904
  C 2.479982 -0.232824 0.000175
  C 3.240703 0.664056 0.623792
  C 4.649128 0.817290 0.821324
  C 5.189171 1.802475 1.534775
  H 6.253291 1.890394 1.674175
  H 0.511128 0.196842 -0.844524
  H 1.392566 1.187486 0.804601
  H 0.484780 -0.672370 0.715249
  H 2.846365 -1.093405 -0.537920
  H 2.137821 1.389180 1.027866
  H 5.288530 0.073961 0.354547
  H 4.575869 2.541274 2.026642
 13
 98.366015
  C 1.021335 -0.000401 0.075171
  C 2.473256 -0.209626 0.015857
  C 3.251786 0.663870 0.637319
  C 4.657414 0.803329 0.842321
  C 5.205924 1.789365 1.548902
  H 6.272344 1.894310 1.648900
  H 0.522239 0.168772 -0.873190
  H 1.354376 1.260958 0.854818
  H 0.475156 -0.712218 0.684574
  H 2.847626 -1.066778 -0.522744
  H 2.068608 1.462251 1.071664
  H 5.295268 0.064218 0.363090
  H 4.600869 2.553376 2.008765
 13
 106.997692
  C 1.010449 -0.037828 0.052273
  C 2.462223 -0.186364 0.046660
  C 3.266336 0.675413 0.635496
  C 4.670841 0.817206 0.822471
  C 5.225819 1.800148 1.527437
  H 6.291244 1.870235 1.666495
  H 0.537850 0.123853 -0.910034
  H 1.299568 1.351089 0.899249
  H 0.461820 -0.746263 0.659906
  H 2.842088 -1.048217 -0.483804
  H 1.989783 1.557565 1.108251
  H 5.306130 0.065554 0.358568
  H 4.624707 2.550032 2.016070
