 20
 0.000000
  H 1.368321 0.065941 -0.032942
  C 2.445827 0.066689 -0.046223
  C 3.103198 -0.009221 1.299105
  H 2.372549 -0.054423 2.100072
  C 3.096125 0.132548 -1.213347
  C 2.389911 0.207523 -2.542054
  C 0.867061 0.205041 -2.498019
  H 0.470610 0.261931 -3.506209
  C 4.548121 0.135474 -1.265122
  C 5.297017 0.197643 -2.366998
  O 6.655007 0.198442 -2.381088
  H 3.737237 0.862461 1.467530
  H 3.737223 -0.894295 1.368394
  H 2.721786 -0.637676 -3.154965
  H 2.721778 1.116290 -3.055976
  H 0.493920 1.058549 -1.938351
  H 0.493922 -0.706002 -2.037930
  H 5.065297 0.081848 -0.314719
  H 4.910933 0.254407 -3.372959
  H 6.989097 0.147410 -1.476622
 20
 13.247366
  H 1.319688 0.064813 -0.012947
  C 2.391726 0.066199 -0.037519
  C 3.140943 -0.017771 1.450646
  H 2.395774 -0.062030 2.234915
  C 3.094936 0.136288 -1.279622
  C 2.379378 0.210841 -2.600848
  C 0.857085 0.207405 -2.539918
  H 0.449764 0.264173 -3.545989
  C 4.540986 0.137737 -1.305239
  C 5.309039 0.199289 -2.396171
  O 6.665923 0.198822 -2.387833
  H 3.765320 0.858242 1.600450
  H 3.765312 -0.905062 1.500946
  H 2.706845 -0.634899 -3.214367
  H 2.706843 1.120222 -3.115322
  H 0.489585 1.061301 -1.976146
  H 0.489586 -0.704489 -2.075790
  H 5.038354 0.083561 -0.345094
  H 4.937511 0.256348 -3.407401
  H 6.985335 0.147464 -1.477579
 20
 40.392112
  H 1.262926 0.066576 -0.044138
  C 2.337623 0.070084 -0.106384
  C 3.245472 -0.025810 1.592850
  H 2.458868 -0.067752 2.336056
  C 3.067977 0.139265 -1.332374
  C 2.356486 0.213428 -2.646773
  C 0.837692 0.209695 -2.580720
  H 0.434108 0.265621 -3.571802
  C 4.501092 0.137885 -1.307879
  C 5.307442 0.199084 -2.392586
  O 6.678317 0.196803 -2.351880
  H 3.838790 0.871770 1.690692
  H 3.838733 -0.928630 1.589087
  H 2.688104 -0.635621 -3.261272
  H 2.688058 1.126116 -3.161794
  H 0.473725 1.059036 -2.020770
  H 0.473800 -0.697110 -2.119948
  H 4.962523 0.082674 -0.329320
  H 4.952416 0.257040 -3.419767
  H 6.974046 0.145535 -1.443056
 20
 68.693203
  H 1.238389 0.064025 -0.000228
  C 2.283054 0.072310 -0.146391
  C 3.344434 -0.035427 1.764110
  H 2.514622 -0.073555 2.439332
  C 3.042317 0.140577 -1.356046
  C 2.353845 0.215881 -2.690461
  C 0.831730 0.213366 -2.645040
  H 0.430085 0.271260 -3.670677
  C 4.479291 0.138623 -1.320948
  C 5.279109 0.198601 -2.383598
  O 6.637319 0.195961 -2.337009
  H 3.905129 0.877451 1.763711
  H 3.905273 -0.942501 1.661037
  H 2.692757 -0.630082 -3.289329
  H 2.692839 1.123864 -3.190403
  H 0.459478 1.070256 -2.081311
  H 0.459356 -0.701574 -2.181187
  H 4.922676 0.083072 -0.336662
  H 4.931348 0.255946 -3.399428
  H 6.926700 0.144560 -1.426658
 20
 92.307202
  H 1.199747 0.065891 -0.032348
  C 2.244455 0.076992 -0.228722
  C 3.477157 -0.045622 1.944011
  H 2.615701 -0.081047 2.571202
  C 2.991666 0.142174 -1.383868
  C 2.326351 0.218910 -2.744532
  C 0.804761 0.217849 -2.724718
  H 0.426610 0.275269 -3.742582
  C 4.434249 0.138971 -1.326439
  C 5.259748 0.198051 -2.373243
  O 6.611045 0.193627 -2.295455
  H 4.017306 0.877508 1.894914
  H 4.017313 -0.957358 1.791354
  H 2.676371 -0.629791 -3.338808
  H 2.676242 1.128916 -3.239649
  H 0.425082 1.073207 -2.170287
  H 0.424927 -0.694319 -2.269930
  H 4.849920 0.082782 -0.330835
  H 4.932805 0.256062 -3.401514
  H 6.882208 0.141391 -1.369992
 20
 108.741652
  H 1.161585 0.066055 -0.036917
  C 2.191475 0.080723 -0.295161
  C 3.584826 -0.055003 2.111529
  H 2.695911 -0.087534 2.686062
  C 2.943691 0.144283 -1.419762
  C 2.316736 0.221508 -2.788943
  C 0.793363 0.221324 -2.788422
  H 0.424391 0.279124 -3.811759
  C 4.394037 0.140153 -1.342978
  C 5.234900 0.198371 -2.374498
  O 6.589017 0.191977 -2.273316
  H 4.101313 0.874556 2.015215
  H 4.101513 -0.967757 1.911178
  H 2.680084 -0.631750 -3.369771
  H 2.679915 1.134874 -3.270067
  H 0.407962 1.075598 -2.236732
  H 0.408104 -0.689701 -2.336431
  H 4.792259 0.083587 -0.342104
  H 4.928555 0.256559 -3.407301
  H 6.845080 0.139097 -1.340910
 20
 119.404001
  H 1.127164 0.066247 -0.035470
  C 2.144260 0.083682 -0.346398
  C 3.710834 -0.064557 2.278968
  H 2.784237 -0.095174 2.823848
  C 2.900178 0.145709 -1.448949
  C 2.304992 0.224078 -2.839027
  C 0.777366 0.226065 -2.869704
  H 0.424179 0.285054 -3.908472
  C 4.347983 0.139839 -1.348739
  C 5.206897 0.197399 -2.367846
  O 6.557232 0.191169 -2.243477
  H 4.211640 0.866860 2.146192
  H 4.211405 -0.975302 2.042236
  H 2.681330 -0.630172 -3.408030
  H 2.681524 1.136729 -3.308643
  H 0.382232 1.081674 -2.322873
  H 0.381506 -0.685646 -2.422147
  H 4.726207 0.083387 -0.345126
  H 4.918150 0.256435 -3.408697
  H 6.796357 0.138513 -1.307435
 20
 125.786661
  H 1.094477 0.067102 -0.051251
  C 2.086309 0.086633 -0.395885
  C 3.840610 -0.073434 2.436206
  H 2.904216 -0.102181 2.944796
  C 2.848834 0.147627 -1.476732
  C 2.289917 0.227154 -2.889192
  C 0.767997 0.230864 -2.954962
  H 0.442305 0.288963 -3.991488
  C 4.293412 0.140622 -1.351615
  C 5.168531 0.197402 -2.355390
  O 6.520544 0.188566 -2.210019
  H 4.331444 0.859421 2.284100
  H 4.331320 -0.983147 2.179843
  H 2.678216 -0.627435 -3.445905
  H 2.677775 1.138094 -3.346421
  H 0.361836 1.084509 -2.420045
  H 0.362069 -0.677364 -2.519528
  H 4.656464 0.082863 -0.332681
  H 4.898346 0.255972 -3.391427
  H 6.746033 0.135390 -1.273785
 20
 129.349286
  H 1.018684 0.069716 -0.094121
  C 2.009271 0.090013 -0.455406
  C 3.994244 -0.079983 2.549782
  H 3.046531 -0.107228 3.035293
  C 2.791187 0.149309 -1.510016
  C 2.266526 0.229581 -2.936763
  C 0.755155 0.235226 -3.032342
  H 0.449755 0.293727 -4.072574
  C 4.243685 0.139903 -1.344339
  C 5.146220 0.194995 -2.320175
  O 6.490181 0.184801 -2.133302
  H 4.481907 0.853838 2.390663
  H 4.481365 -0.990060 2.286335
  H 2.664902 -0.624348 -3.483760
  H 2.665003 1.139048 -3.384576
  H 0.341667 1.087587 -2.504426
  H 0.341312 -0.670676 -2.603485
  H 4.581447 0.081529 -0.308964
  H 4.907771 0.254003 -3.365777
  H 6.687407 0.131553 -1.186913
 20
 131.000232
  H 0.914502 0.072514 -0.144468
  C 1.905421 0.092815 -0.504279
  C 4.191689 -0.083654 2.616936
  H 3.231414 -0.110172 3.088014
  C 2.720892 0.150297 -1.524228
  C 2.256676 0.231672 -2.968811
  C 0.751307 0.240274 -3.120945
  H 0.483570 0.299875 -4.180392
  C 4.169146 0.138093 -1.305928
  C 5.105096 0.191548 -2.251894
  O 6.432252 0.177749 -2.019721
  H 4.676950 0.858604 2.446524
  H 4.676571 -1.000863 2.341069
  H 2.675697 -0.625245 -3.500595
  H 2.675766 1.142777 -3.401248
  H 0.319743 1.094468 -2.607022
  H 0.319080 -0.667479 -2.705715
  H 4.470516 0.078884 -0.259611
  H 4.900010 0.251739 -3.318731
  H 6.595563 0.123781 -1.069172
 20
 131.491332
  H 0.794676 0.075298 -0.191327
  C 1.789068 0.095656 -0.551944
  C 4.441610 -0.083919 2.619151
  H 3.479875 -0.109885 3.081242
  C 2.643450 0.150975 -1.533352
  C 2.245712 0.233974 -3.006929
  C 0.736173 0.246972 -3.230912
  H 0.517135 0.307295 -4.299916
  C 4.072269 0.134591 -1.243639
  C 5.057286 0.185330 -2.140573
  O 6.376653 0.168136 -1.838698
  H 4.922219 0.852764 2.447079
  H 4.921713 -0.995507 2.341960
  H 2.687431 -0.624877 -3.518970
  H 2.685492 1.140108 -3.417603
  H 0.283230 1.102147 -2.738056
  H 0.282122 -0.659105 -2.836585
  H 4.319399 0.074844 -0.188569
  H 4.908579 0.245722 -3.210290
  H 6.490612 0.114123 -0.883433
 20
 131.418072
  H 0.646044 0.079000 -0.269917
  C 1.647461 0.098244 -0.609136
  C 4.721797 -0.079255 2.538111
  H 3.767988 -0.106189 3.015124
  C 2.549750 0.150901 -1.540312
  C 2.233950 0.235314 -3.032810
  C 0.743170 0.252721 -3.334878
  H 0.581659 0.313329 -4.408203
  C 3.966697 0.129912 -1.164403
  C 5.004558 0.177478 -1.999083
  O 6.302058 0.155208 -1.614335
  H 5.207123 0.858486 2.373202
  H 5.206250 -0.991596 2.268184
  H 2.700737 -0.626183 -3.521212
  H 2.698321 1.140390 -3.418831
  H 0.266320 1.111396 -2.864796
  H 0.267267 -0.651728 -2.965190
  H 4.153252 0.069226 -0.096983
  H 4.923333 0.238314 -3.072728
  H 6.354520 0.100290 -0.651682
 20
 130.724653
  H 0.437222 0.084356 -0.376397
  C 1.455115 0.101681 -0.663707
  C 5.089420 -0.060260 2.256453
  H 4.179220 -0.092265 2.810973
  C 2.428631 0.151629 -1.518302
  C 2.241192 0.238635 -3.031370
  C 0.784382 0.258442 -3.456041
  H 0.713609 0.318848 -4.537736
  C 3.809865 0.124436 -1.017431
  C 4.920766 0.166829 -1.753899
  O 6.174109 0.128963 -1.245797
  H 5.571702 0.873702 2.086299
  H 5.576902 -0.975124 1.977902
  H 2.747091 -0.629910 -3.479917
  H 2.738843 1.138537 -3.375720
  H 0.269573 1.120476 -3.027041
  H 0.277697 -0.643611 -3.127194
  H 3.908708 0.060600 0.063399
  H 4.941906 0.227690 -2.830513
  H 6.130636 0.070132 -0.281495
 20
 123.942495
  H 0.305466 0.069537 -0.572138
  C 1.363935 0.076446 -0.540599
  C 4.782927 -0.002064 1.595950
  H 3.988464 -0.046753 2.318273
  C 2.433922 0.128543 -1.260862
  C 2.336228 0.228877 -2.796319
  C 0.914876 0.261223 -3.328392
  H 0.940775 0.332092 -4.414444
  C 3.835132 0.097329 -0.848184
  C 4.899262 0.150448 -1.646378
  O 6.188885 0.114525 -1.234845
  H 5.364394 0.906624 1.642521
  H 5.371012 -0.898778 1.536440
  H 2.859956 -0.635856 -3.217132
  H 2.856279 1.139695 -3.100657
  H 0.376462 1.117275 -2.942097
  H 0.374412 -0.647787 -3.053889
  H 4.121106 0.003749 0.332669
  H 4.865020 0.224681 -2.726984
  H 6.218077 0.043982 -0.270465
 20
 116.211438
  H 0.450707 0.083027 -0.607394
  C 1.509237 0.098636 -0.483331
  C 4.641224 -0.013052 1.663303
  H 3.777566 -0.101331 2.307079
  C 2.510933 0.125664 -1.302445
  C 2.310146 0.216577 -2.836046
  C 0.855519 0.265027 -3.276353
  H 0.820896 0.329041 -4.363424
  C 3.917236 0.107823 -1.098308
  C 5.005775 0.137436 -1.834018
  O 6.280301 0.139495 -1.356803
  H 5.201081 0.881668 1.911212
  H 5.268569 -0.888635 1.757319
  H 2.795275 -0.653582 -3.280681
  H 2.824198 1.117254 -3.182913
  H 0.350880 1.135730 -2.864416
  H 0.323407 -0.631144 -2.968040
  H 4.271606 0.004207 0.608698
  H 5.023351 0.181703 -2.927858
  H 6.258681 0.128244 -0.393114
