 22
 0.000000
  C 0.999098 0.153939 0.434168
  C 2.470828 0.138612 0.395948
  C 3.246058 0.604322 1.555043
  H 2.622855 0.934877 2.378197
  C 3.070913 -0.329944 -0.770535
  C 4.450983 -0.419434 -0.993901
  C 5.100922 -0.870273 -2.118120
  C 4.626080 -1.387616 -3.407914
  C 3.142578 -1.510867 -3.715181
  H 3.015802 -1.912422 -4.716441
  H 6.183345 -0.853347 -2.076368
  H 0.609376 0.531765 1.374571
  H 0.608280 -0.851624 0.270703
  H 0.608133 0.766896 -0.379507
  H 3.903183 1.423951 1.258201
  H 3.903357 -0.192724 1.907679
  H 2.401774 -0.644777 -1.554161
  H 5.094975 -0.095597 -0.187203
  H 5.099429 -2.371030 -3.533991
  H 5.099534 -0.764008 -4.178677
  H 2.653696 -0.540247 -3.681034
  H 2.653770 -2.188957 -3.019854
 22
 -0.119169
  C 0.996657 0.245365 0.433430
  C 2.463178 0.138297 0.381388
  C 3.255653 0.482196 1.572460
  H 2.622205 0.722661 2.420792
  C 3.046521 -0.286102 -0.808212
  C 4.428943 -0.350358 -1.026230
  C 5.091690 -0.789722 -2.148113
  C 4.632346 -1.374970 -3.411998
  C 3.155292 -1.585768 -3.694104
  H 3.044474 -2.057793 -4.667424
  H 6.172693 -0.712416 -2.102169
  H 0.640558 0.645958 1.378011
  H 0.546611 -0.737428 0.274246
  H 0.629660 0.863840 -0.387432
  H 3.894469 1.341723 1.363949
  H 3.924301 -0.333986 1.846520
  H 2.375707 -0.556778 -1.607831
  H 5.060944 0.003353 -0.221534
  H 5.159795 -2.334049 -3.511620
  H 5.073760 -0.767499 -4.213833
  H 2.619579 -0.640021 -3.726419
  H 2.701880 -2.241620 -2.955348
 22
 0.427026
  C 0.989043 0.344871 0.458919
  C 2.440223 0.137992 0.345646
  C 3.265280 0.315553 1.556929
  H 2.649807 0.486910 2.435085
  C 3.003378 -0.196865 -0.878866
  C 4.390497 -0.256165 -1.078019
  C 5.085183 -0.671995 -2.188067
  C 4.659505 -1.372361 -3.403619
  C 3.194964 -1.701404 -3.634223
  H 3.097814 -2.267946 -4.557295
  H 6.155373 -0.504164 -2.156345
  H 0.690257 0.671471 1.448649
  H 0.458336 -0.578470 0.214884
  H 0.649875 1.069194 -0.283875
  H 3.928053 1.174651 1.441773
  H 3.895926 -0.553899 1.738170
  H 2.334871 -0.361307 -1.707241
  H 4.991291 0.094070 -0.245370
  H 5.249295 -2.299839 -3.436333
  H 5.047125 -0.799008 -4.256873
  H 2.599005 -0.799200 -3.741127
  H 2.795577 -2.308330 -2.825513
 22
 2.506342
  C 0.979909 0.424930 0.505840
  C 2.406732 0.158765 0.278295
  C 3.267662 0.160993 1.486516
  H 2.673180 0.251264 2.391510
  C 2.953417 -0.069141 -0.972230
  C 4.346001 -0.158385 -1.136659
  C 5.075819 -0.555125 -2.229552
  C 4.689740 -1.366250 -3.388578
  C 3.245683 -1.810188 -3.545540
  H 3.162569 -2.461482 -4.411987
  H 6.130403 -0.306157 -2.211968
  H 0.755482 0.643359 1.542746
  H 0.377294 -0.426721 0.180784
  H 0.648152 1.253911 -0.123159
  H 3.952771 1.009160 1.469059
  H 3.855789 -0.751733 1.561050
  H 2.298241 -0.097690 -1.827113
  H 4.914371 0.148072 -0.259015
  H 5.342275 -2.250657 -3.361739
  H 5.016916 -0.833181 -4.291098
  H 2.585042 -0.964600 -3.708925
  H 2.908643 -2.363629 -2.672432
 22
 5.290214
  C 0.945495 0.415281 0.546305
  C 2.367211 0.189739 0.220744
  C 3.251780 0.159171 1.422446
  H 2.661987 0.223303 2.334572
  C 2.914125 -0.008106 -1.029632
  C 4.311420 -0.123836 -1.153187
  C 5.082843 -0.515525 -2.218437
  C 4.739346 -1.357481 -3.371320
  C 3.313986 -1.865442 -3.520978
  H 3.257345 -2.525382 -4.383991
  H 6.131142 -0.242873 -2.179568
  H 0.775750 0.571884 1.607240
  H 0.332180 -0.422462 0.202248
  H 0.568631 1.276549 -0.015647
  H 3.925883 1.014112 1.441936
  H 3.823648 -0.765624 1.476525
  H 2.277885 0.003497 -1.898907
  H 4.843718 0.148760 -0.227609
  H 5.423060 -2.216130 -3.329310
  H 5.046918 -0.816646 -4.276957
  H 2.608306 -1.057283 -3.681324
  H 3.011252 -2.430831 -2.640548
 22
 13.447946
  C 0.945377 0.454402 0.580892
  C 2.342205 0.231551 0.164326
  C 3.294766 0.013299 1.299078
  H 2.716805 0.003615 2.232164
  C 2.832672 0.200713 -1.118048
  C 4.213278 0.005454 -1.276703
  C 5.049534 -0.382415 -2.283762
  C 4.790951 -1.368435 -3.347211
  C 3.401001 -1.989059 -3.379838
  H 3.335327 -2.697075 -4.201949
  H 6.060143 0.010031 -2.272476
  H 0.815647 0.401309 1.657334
  H 0.277261 -0.269652 0.107327
  H 0.605278 1.433035 0.230117
  H 3.945907 0.867499 1.472861
  H 3.767440 -0.964231 1.288740
  H 2.190138 0.394718 -1.962262
  H 4.685936 0.119750 -0.266912
  H 5.548749 -2.152079 -3.248133
  H 5.002890 -0.874211 -4.305609
  H 2.634430 -1.235547 -3.526991
  H 3.192630 -2.521886 -2.454657
 22
 37.527336
  C 0.998260 0.486414 0.727645
  C 2.330643 0.256982 0.136120
  C 3.418379 -0.169372 1.076942
  H 2.940595 -0.277509 2.072843
  C 2.698322 0.437944 -1.171699
  C 4.027756 0.168347 -1.477861
  C 4.960396 -0.263344 -2.341843
  C 4.819493 -1.407170 -3.283730
  C 3.424374 -2.016236 -3.327833
  H 3.393598 -2.820829 -4.054432
  H 5.950329 0.192615 -2.326080
  H 0.947397 0.167736 1.765051
  H 0.217951 -0.034038 0.163908
  H 0.749209 1.546422 0.682316
  H 4.082787 0.636064 1.384830
  H 3.767237 -1.188594 0.946183
  H 2.009955 0.796820 -1.922027
  H 4.455705 0.092730 -0.319178
  H 5.554351 -2.158256 -3.005468
  H 5.100544 -1.043034 -4.287273
  H 2.686867 -1.269561 -3.615073
  H 3.145211 -2.419119 -2.363973
 22
 59.235743
  C 0.978816 0.587969 0.762561
  C 2.272026 0.250659 0.120697
  C 3.460128 -0.227264 0.931731
  H 3.126614 -0.349435 1.981234
  C 2.554160 0.467638 -1.207467
  C 3.829603 0.231071 -1.644980
  C 4.831673 -0.158036 -2.391046
  C 4.860360 -1.390051 -3.250044
  C 3.519591 -2.112601 -3.331911
  H 3.592556 -2.960781 -4.014969
  H 5.780922 0.361783 -2.345111
  H 0.931351 0.250709 1.791315
  H 0.141115 0.149511 0.218615
  H 0.818611 1.668059 0.748162
  H 4.174997 0.579060 1.230057
  H 3.746400 -1.279858 0.758849
  H 1.816153 0.874915 -1.884520
  H 4.260757 -0.022889 -0.094431
  H 5.631797 -2.063230 -2.868853
  H 5.179226 -1.082087 -4.250128
  H 2.743239 -1.440929 -3.703289
  H 3.215789 -2.485633 -2.357856
 22
 58.776739
  C 1.004970 0.671284 0.792891
  C 2.279122 0.275293 0.137689
  C 3.437564 -0.293167 0.934603
  H 3.088696 -0.464776 1.975453
  C 2.521959 0.510294 -1.210789
  C 3.703644 0.227334 -1.796102
  C 4.739271 -0.095695 -2.502092
  C 4.901302 -1.370906 -3.293294
  C 3.658892 -2.251372 -3.280758
  H 3.819104 -3.132864 -3.897204
  H 5.613729 0.549311 -2.532127
  H 0.942486 0.317508 1.818039
  H 0.143810 0.282252 0.247676
  H 0.894363 1.758446 0.801364
  H 4.122242 0.477964 1.419840
  H 3.645348 -1.363333 0.725017
  H 1.757350 0.978647 -1.816228
  H 4.292480 -0.048539 0.181124
  H 5.760070 -1.924448 -2.901884
  H 5.145656 -1.089799 -4.321738
  H 2.803322 -1.708459 -3.676740
  H 3.421616 -2.579513 -2.272475
 22
 58.891007
  C 1.039538 0.697220 0.787154
  C 2.313173 0.293570 0.135276
  C 3.420608 -0.348703 0.943951
  H 2.977084 -0.676598 1.908442
  C 2.540198 0.547546 -1.216443
  C 3.676215 0.257281 -1.872029
  C 4.714430 -0.070544 -2.566755
  C 4.893078 -1.364877 -3.323181
  C 3.677378 -2.281028 -3.246918
  H 3.848769 -3.180000 -3.832063
  H 5.565141 0.601245 -2.646257
  H 0.978857 0.364846 1.815540
  H 0.179649 0.294260 0.252435
  H 0.922885 1.781489 0.774659
  H 4.020326 0.327022 1.669869
  H 3.725716 -1.335744 0.557668
  H 1.754474 1.031920 -1.786203
  H 4.345142 0.150656 0.470580
  H 5.778008 -1.879832 -2.935018
  H 5.101527 -1.114483 -4.368555
  H 2.798796 -1.779725 -3.641645
  H 3.473580 -2.574320 -2.223139
 22
 63.111591
  C 1.062190 0.754233 0.791901
  C 2.319863 0.322820 0.126711
  C 3.407102 -0.422772 0.932764
  H 2.851880 -0.797261 1.805237
  C 2.541865 0.558827 -1.224298
  C 3.677720 0.277878 -1.885461
  C 4.703712 -0.049814 -2.596108
  C 4.895763 -1.366584 -3.309241
  C 3.711984 -2.312613 -3.161251
  H 3.894820 -3.229838 -3.716055
  H 5.535504 0.638040 -2.718316
  H 1.024433 0.467747 1.837945
  H 0.192733 0.323400 0.292092
  H 0.941140 1.837614 0.732667
  H 4.201902 -0.031969 1.692382
  H 3.772989 -1.288821 0.372160
  H 1.743943 1.021873 -1.792006
  H 4.079485 0.451904 0.596739
  H 5.805489 -1.839771 -2.929392
  H 5.065229 -1.150378 -4.367799
  H 2.806257 -1.853077 -3.549817
  H 3.547206 -2.571582 -2.119146
 22
 62.095524
  C 1.137874 0.827600 0.831129
  C 2.355779 0.357147 0.126021
  C 3.436599 -0.503230 0.986764
  H 2.789445 -0.859283 1.795132
  C 2.528806 0.558241 -1.249498
  C 3.636059 0.263207 -1.940317
  C 4.682015 -0.057870 -2.621363
  C 4.920816 -1.383845 -3.298102
  C 3.759577 -2.357152 -3.147337
  H 3.978725 -3.283311 -3.673851
  H 5.495003 0.650677 -2.744797
  H 1.132518 0.563716 1.883017
  H 0.250586 0.395888 0.367349
  H 1.029820 1.911413 0.754416
  H 4.262942 -0.169907 1.670379
  H 3.770155 -1.350792 0.389754
  H 1.704459 1.006788 -1.790238
  H 3.698937 0.550834 0.502778
  H 5.835203 -1.821093 -2.888807
  H 5.104840 -1.189170 -4.358041
  H 2.849680 -1.933545 -3.565402
  H 3.581583 -2.593674 -2.101932
 22
 46.665267
  C 1.248136 0.964096 0.920691
  C 2.416918 0.428074 0.164806
  C 3.294925 -0.675095 0.926171
  H 2.614804 -1.083553 1.678790
  C 2.505399 0.595046 -1.260467
  C 3.562596 0.258789 -1.996232
  C 4.603244 -0.031957 -2.692018
  C 4.931823 -1.367141 -3.304607
  C 3.862422 -2.421913 -3.058357
  H 4.145880 -3.354815 -3.538847
  H 5.346626 0.734486 -2.883307
  H 1.294307 0.715400 1.975142
  H 0.321059 0.559427 0.512576
  H 1.181010 2.047044 0.824250
  H 4.155617 -0.390836 1.536681
  H 3.569292 -1.462259 0.231407
  H 1.659335 1.054375 -1.758514
  H 3.468722 0.777601 0.456774
  H 5.890036 -1.699640 -2.898367
  H 5.070238 -1.219795 -4.378580
  H 2.906598 -2.103633 -3.467581
  H 3.738520 -2.610991 -1.995550
 22
 29.236982
  C 1.368945 1.095594 0.995077
  C 2.519432 0.475809 0.247577
  C 3.042384 -0.863884 0.839767
  H 2.276582 -1.268769 1.500428
  C 2.560582 0.647865 -1.210538
  C 3.536739 0.255168 -2.005070
  C 4.504527 -0.023172 -2.815868
  C 4.906928 -1.355909 -3.359020
  C 4.037278 -2.506464 -2.874265
  H 4.367334 -3.433698 -3.335819
  H 5.116410 0.800156 -3.176340
  H 1.413840 0.846780 2.050143
  H 0.417873 0.735421 0.604330
  H 1.370156 2.178663 0.888349
  H 3.933116 -0.757564 1.450970
  H 3.229542 -1.589184 0.054765
  H 1.719438 1.169253 -1.658291
  H 3.477572 0.986016 0.510093
  H 5.950555 -1.539491 -3.090905
  H 4.870876 -1.280383 -4.449379
  H 2.996156 -2.341136 -3.139622
  H 4.109257 -2.624508 -1.796458
 22
 28.994070
  C 1.312605 1.051127 0.963809
  C 2.584523 0.540109 0.336061
  C 3.266830 -0.640897 1.103902
  H 2.571741 -0.999060 1.858566
  C 2.523049 0.304760 -1.120216
  C 3.627199 0.116161 -1.813853
  C 4.643931 -0.146379 -2.576312
  C 4.883561 -1.392997 -3.362026
  C 3.776252 -2.425273 -3.244545
  H 4.027710 -3.296775 -3.843533
  H 5.445387 0.583519 -2.652473
  H 1.392493 1.054908 2.046461
  H 0.471122 0.423225 0.676223
  H 1.094055 2.067022 0.640935
  H 4.178735 -0.341236 1.605974
  H 3.494371 -1.460835 0.429523
  H 1.578488 0.428390 -1.639112
  H 3.420399 1.257314 0.384948
  H 5.833638 -1.804334 -3.004488
  H 5.041158 -1.121105 -4.408970
  H 2.829927 -2.032710 -3.606752
  H 3.648520 -2.740676 -2.212076
