 9
 0.000000
  C 0.916517 0.049356 0.254685
  C 2.404220 0.059006 0.077392
  H 2.995536 0.011769 0.981483
  C 3.004804 0.124113 -1.095933
  H 2.463636 0.173529 -2.026618
  H 4.078306 0.130507 -1.185530
  H 0.646737 -0.017893 1.305906
  H 0.472183 -0.800690 -0.260935
  H 0.473971 0.959962 -0.147058
 9
 3.449794
  C 0.911532 0.006592 0.269290
  C 2.378949 0.060785 0.084444
  H 2.986598 0.033964 0.982646
  C 2.977963 0.132626 -1.090256
  H 2.418287 0.155420 -2.011440
  H 4.048104 0.180362 -1.184143
  H 0.608774 -0.021213 1.308152
  H 0.442746 -0.805676 -0.272306
  H 0.680904 0.946880 -0.184312
 9
 11.669743
  C 0.895742 -0.025216 0.281530
  C 2.364598 0.062922 0.088984
  H 2.983649 0.056349 0.975490
  C 2.958846 0.138535 -1.089098
  H 2.397109 0.125172 -2.008387
  H 4.023393 0.233977 -1.184289
  H 0.571192 -0.023297 1.314382
  H 0.410558 -0.804052 -0.288707
  H 0.856345 0.930890 -0.193724
 9
 22.153881
  C 0.876548 -0.049425 0.290475
  C 2.348268 0.074897 0.080749
  H 2.980129 0.091836 0.979392
  C 2.947527 0.143444 -1.096432
  H 2.395159 0.099260 -2.021023
  H 4.011662 0.264461 -1.184778
  H 0.551554 -0.037272 1.317962
  H 0.378606 -0.793717 -0.303417
  H 0.988931 0.911972 -0.176243
 9
 32.546731
  C 0.865125 -0.068014 0.300501
  C 2.336079 0.091819 0.072680
  H 2.955649 0.138574 0.960414
  C 2.945937 0.143541 -1.103687
  H 2.404714 0.061518 -2.031735
  H 4.005182 0.287272 -1.183727
  H 0.545455 -0.066521 1.328376
  H 0.348161 -0.773920 -0.328331
  H 1.099327 0.903464 -0.136623
 9
 41.311111
  C 0.857543 -0.084630 0.307856
  C 2.322659 0.108497 0.061217
  H 2.930869 0.190155 0.956294
  C 2.944814 0.140598 -1.113183
  H 2.412046 0.023377 -2.044946
  H 4.015632 0.302527 -1.185789
  H 0.550670 -0.104241 1.335698
  H 0.320303 -0.747855 -0.353417
  H 1.185672 0.902792 -0.094175
 9
 46.904634
  C 0.853240 -0.100803 0.310850
  C 2.318632 0.126347 0.051381
  H 2.914736 0.267060 0.947915
  C 2.951377 0.127575 -1.123834
  H 2.433333 -0.055399 -2.049643
  H 4.001516 0.327129 -1.193818
  H 0.556512 -0.176508 1.340792
  H 0.295072 -0.676277 -0.401346
  H 1.258289 0.907318 -0.018509
 9
 51.656089
  C 0.853022 -0.114951 0.313383
  C 2.315515 0.146903 0.045326
  H 2.900380 0.325111 0.938262
  C 2.958084 0.113569 -1.129338
  H 2.448298 -0.110930 -2.046685
  H 3.999392 0.346176 -1.202913
  H 0.556131 -0.235834 1.343615
  H 0.282147 -0.619072 -0.432213
  H 1.316400 0.914990 0.032659
 9
 56.216665
  C 0.857721 -0.124327 0.317270
  C 2.309301 0.159025 0.043493
  H 2.893226 0.348985 0.942010
  C 2.961323 0.110964 -1.131045
  H 2.454533 -0.130235 -2.045677
  H 4.001267 0.360948 -1.203746
  H 0.561493 -0.249717 1.338713
  H 0.275140 -0.602647 -0.445910
  H 1.365614 0.916633 0.047785
 9
 59.855625
  C 0.859298 -0.135025 0.319767
  C 2.309968 0.173126 0.045188
  H 2.894889 0.366878 0.940960
  C 2.967199 0.111629 -1.131381
  H 2.461875 -0.138906 -2.044822
  H 4.005256 0.369594 -1.204838
  H 0.556828 -0.259321 1.338972
  H 0.275012 -0.591807 -0.453764
  H 1.404592 0.919731 0.053581
 9
 63.254196
  C 0.863312 -0.146664 0.321901
  C 2.311584 0.184514 0.049422
  H 2.900529 0.380523 0.941495
  C 2.973448 0.108793 -1.129522
  H 2.466011 -0.137769 -2.043543
  H 4.008998 0.378626 -1.206020
  H 0.551346 -0.259984 1.338420
  H 0.279467 -0.586522 -0.460880
  H 1.439565 0.922492 0.051747
 9
 65.949503
  C 0.871409 -0.165017 0.323745
  C 2.314187 0.209643 0.050653
  H 2.907117 0.396708 0.943471
  C 2.977090 0.124311 -1.132449
  H 2.471365 -0.137564 -2.043890
  H 4.020425 0.363900 -1.204933
  H 0.550343 -0.266810 1.338820
  H 0.283512 -0.580921 -0.469710
  H 1.461876 0.933732 0.052698
 9
 68.542829
  C 0.881199 -0.185455 0.325621
  C 2.318374 0.218540 0.054263
  H 2.913252 0.399485 0.946011
  C 2.984220 0.125606 -1.132598
  H 2.476186 -0.138717 -2.042416
  H 4.025056 0.377320 -1.207089
  H 0.543430 -0.257277 1.336594
  H 0.289039 -0.578006 -0.474272
  H 1.493559 0.944005 0.046684
 9
 70.809836
  C 0.893188 -0.207434 0.326741
  C 2.322000 0.232393 0.057148
  H 2.920881 0.400896 0.948863
  C 2.991058 0.132445 -1.133855
  H 2.482935 -0.141368 -2.040753
  H 4.030335 0.389774 -1.210552
  H 0.537600 -0.248104 1.333658
  H 0.291938 -0.572538 -0.478914
  H 1.522333 0.962189 0.039201
