 20
 0.000000
  H 1.487884 0.053510 0.262143
  C 2.562800 0.055992 0.156963
  C 3.351417 -0.016645 1.433399
  C 2.489648 -0.090277 2.690416
  C 3.347454 -0.163420 3.948609
  C 3.135118 0.121167 -1.044163
  H 2.599799 0.182348 -1.980296
  C 4.570660 0.134610 -1.233591
  C 5.159358 0.206427 -2.428224
  O 6.497610 0.221489 -2.641821
  H 4.002272 0.863760 1.503202
  H 3.998728 -0.899484 1.405731
  H 1.847654 -0.973009 2.645226
  H 1.846684 0.791086 2.748565
  H 3.983683 -1.046053 3.930130
  H 2.718606 -0.215529 4.834728
  H 3.982803 0.715979 4.033127
  H 5.204298 0.083677 -0.357991
  H 4.624260 0.261126 -3.364907
  H 6.961750 0.172165 -1.795891
 20
 -0.847721
  H 1.586318 -0.153497 0.259876
  C 2.662427 -0.093073 0.188268
  C 3.405530 -0.200359 1.486967
  C 2.489631 -0.004629 2.693738
  C 3.254345 -0.110190 4.005091
  C 3.222632 0.071713 -1.010514
  H 2.594328 0.159188 -1.886689
  C 4.639734 0.147994 -1.270742
  C 5.140435 0.340446 -2.492579
  O 6.454093 0.416855 -2.807313
  H 4.199507 0.550095 1.513566
  H 3.882268 -1.184786 1.557002
  H 1.700157 -0.758531 2.673548
  H 2.015372 0.975956 2.628475
  H 3.720800 -1.088338 4.097395
  H 2.586420 0.031544 4.850555
  H 4.034042 0.646290 4.054704
  H 5.315732 0.033190 -0.433418
  H 4.519140 0.455243 -3.368368
  H 6.987088 0.310892 -2.008452
 20
 -0.350032
  H 1.575696 -0.401773 0.237204
  C 2.649015 -0.295660 0.182626
  C 3.378885 -0.419753 1.482404
  C 2.522465 0.060141 2.654018
  C 3.274354 -0.036349 3.980095
  C 3.214026 0.019408 -0.987599
  H 2.598658 0.186689 -1.861815
  C 4.629940 0.131338 -1.243872
  C 5.118396 0.494490 -2.430729
  O 6.432108 0.605472 -2.748789
  H 4.285043 0.188698 1.428132
  H 3.669454 -1.459665 1.657867
  H 1.612177 -0.543240 2.707678
  H 2.224612 1.098378 2.477437
  H 3.568665 -1.065999 4.179104
  H 2.647859 0.306086 4.802163
  H 4.174047 0.578233 3.956108
  H 5.317884 -0.109490 -0.444288
  H 4.488100 0.739014 -3.273539
  H 6.971514 0.382195 -1.984275
 20
 1.287297
  H 1.554233 -0.670668 0.190180
  C 2.616471 -0.469067 0.175578
  C 3.337630 -0.619685 1.478950
  C 2.568119 0.100673 2.591500
  C 3.325388 0.061356 3.912811
  C 3.184807 0.006088 -0.934385
  H 2.591381 0.290013 -1.795077
  C 4.604348 0.116417 -1.184457
  C 5.096328 0.658850 -2.299208
  O 6.407374 0.748484 -2.624683
  H 4.306442 -0.131035 1.364942
  H 3.465239 -1.668248 1.756551
  H 1.589756 -0.368238 2.719437
  H 2.402993 1.138655 2.294748
  H 3.505322 -0.966985 4.219551
  H 2.755668 0.557673 4.695024
  H 4.286201 0.563006 3.818197
  H 5.292125 -0.290103 -0.454370
  H 4.470247 1.079191 -3.072645
  H 6.945866 0.364979 -1.919681
 20
 7.187799
  H 1.558597 -0.904316 0.071038
  C 2.577443 -0.554732 0.148543
  C 3.298223 -0.748653 1.448989
  C 2.600032 0.105255 2.521637
  C 3.388400 0.114256 3.825190
  C 3.164050 0.085464 -0.861634
  H 2.592671 0.512964 -1.678185
  C 4.578683 0.112913 -1.135470
  C 5.093979 0.756622 -2.168205
  O 6.395290 0.749104 -2.531130
  H 4.265757 -0.277300 1.280612
  H 3.337867 -1.781938 1.786686
  H 1.598303 -0.289738 2.709530
  H 2.485623 1.125159 2.149415
  H 3.534406 -0.900491 4.189810
  H 2.856583 0.677943 4.588453
  H 4.365359 0.570353 3.679886
  H 5.240657 -0.442989 -0.484558
  H 4.497306 1.336292 -2.855572
  H 6.903538 0.211901 -1.910240
 20
 21.302790
  H 1.563670 -1.014104 -0.075887
  C 2.532266 -0.582600 0.121375
  C 3.241046 -0.789622 1.430102
  C 2.575323 0.078004 2.519843
  C 3.437321 0.133812 3.774030
  C 3.176820 0.209629 -0.753918
  H 2.636745 0.782394 -1.506204
  C 4.571045 0.092451 -1.101940
  C 5.137966 0.792557 -2.091956
  O 6.418309 0.659305 -2.516472
  H 4.119582 -0.178225 1.191706
  H 3.317208 -1.814623 1.774248
  H 1.596758 -0.338379 2.779660
  H 2.401119 1.083793 2.134289
  H 3.632037 -0.869082 4.147926
  H 2.931077 0.694685 4.556745
  H 4.390540 0.615177 3.566495
  H 5.176616 -0.608566 -0.539176
  H 4.598283 1.514383 -2.686695
  H 6.870250 -0.007320 -1.982301
 20
 41.641157
  H 1.575009 -1.116357 -0.255768
  C 2.486088 -0.636870 0.061718
  C 3.135418 -0.831005 1.402868
  C 2.555456 0.079786 2.515262
  C 3.517996 0.160575 3.691903
  C 3.183878 0.243162 -0.677759
  H 2.681458 0.936841 -1.355150
  C 4.556808 0.058333 -1.060061
  C 5.170187 0.810458 -1.986962
  O 6.436688 0.626503 -2.432581
  H 3.932672 -0.105874 1.108668
  H 3.232773 -1.847853 1.765082
  H 1.600861 -0.328687 2.867321
  H 2.356603 1.076326 2.119621
  H 3.740841 -0.833760 4.072236
  H 3.083282 0.748331 4.497575
  H 4.454560 0.627513 3.392324
  H 5.109315 -0.738597 -0.571620
  H 4.683901 1.624459 -2.503343
  H 6.832001 -0.112638 -1.975787
 20
 69.357964
  H 1.590576 -1.240908 -0.391320
  C 2.448229 -0.731413 0.021237
  C 3.011288 -0.878673 1.373431
  C 2.545074 0.076822 2.496591
  C 3.596910 0.195548 3.588888
  C 3.187124 0.259526 -0.585068
  H 2.710995 0.992646 -1.249007
  C 4.557290 0.038434 -1.004579
  C 5.198265 0.831844 -1.867689
  O 6.456216 0.626388 -2.338686
  H 3.762176 0.017177 0.981772
  H 3.122621 -1.886522 1.767172
  H 1.624004 -0.327104 2.938002
  H 2.305151 1.063139 2.095314
  H 3.837286 -0.784417 3.995097
  H 3.231406 0.821666 4.399563
  H 4.511754 0.637402 3.197978
  H 5.062502 -0.832590 -0.601854
  H 4.756592 1.717902 -2.296830
  H 6.819856 -0.176610 -1.945822
 20
 84.018328
  H 1.634573 -1.337681 -0.423134
  C 2.436246 -0.791053 0.050206
  C 2.916858 -0.921124 1.370472
  C 2.538298 0.069200 2.472669
  C 3.623803 0.202892 3.534480
  C 3.204379 0.270804 -0.509232
  H 2.711692 1.021741 -1.137330
  C 4.582074 0.032773 -0.979322
  C 5.209099 0.829660 -1.840380
  O 6.464667 0.630958 -2.328831
  H 3.735594 0.160373 0.811579
  H 2.990354 -1.925234 1.807147
  H 1.625643 -0.308551 2.948714
  H 2.308266 1.052205 2.055364
  H 3.857919 -0.768764 3.963604
  H 3.293793 0.859917 4.335492
  H 4.534817 0.615864 3.105101
  H 5.083765 -0.851255 -0.600939
  H 4.768078 1.726416 -2.245428
  H 6.829938 -0.180337 -1.953817
 20
 64.551377
  H 1.777024 -1.416224 -0.430587
  C 2.512798 -0.851357 0.107648
  C 2.830851 -0.973148 1.411827
  C 2.510097 0.046102 2.475962
  C 3.601083 0.183223 3.537219
  C 3.268289 0.324406 -0.412817
  H 2.730206 1.056487 -1.004892
  C 4.633062 0.053861 -0.978975
  C 5.215176 0.823775 -1.883982
  O 6.449385 0.607471 -2.440237
  H 3.723849 0.383616 0.660400
  H 2.852918 -1.963983 1.875100
  H 1.591470 -0.300661 2.954642
  H 2.316370 1.027090 2.033128
  H 3.809302 -0.782359 3.994925
  H 3.291322 0.873250 4.318320
  H 4.522481 0.557120 3.095110
  H 5.140154 -0.831276 -0.612790
  H 4.762433 1.722721 -2.274496
  H 6.838055 -0.209004 -2.062900
 20
 38.268997
  H 2.054756 -1.418116 -0.482613
  C 2.676609 -0.800349 0.140003
  C 2.857669 -0.966970 1.447671
  C 2.506204 0.031137 2.519097
  C 3.510743 0.104681 3.668145
  C 3.341357 0.454363 -0.369591
  H 2.766511 1.099115 -1.025924
  C 4.670805 0.114396 -0.998202
  C 5.175429 0.746429 -2.065148
  O 6.371798 0.476170 -2.659896
  H 3.711251 0.786273 0.620485
  H 2.843305 -1.965464 1.889514
  H 1.544184 -0.311049 2.910879
  H 2.357619 1.029842 2.103153
  H 3.658634 -0.879762 4.106837
  H 3.155160 0.777203 4.445727
  H 4.472681 0.469951 3.313266
  H 5.217323 -0.701969 -0.538267
  H 4.673626 1.567017 -2.558159
  H 6.799031 -0.256990 -2.201496
 20
 19.989565
  H 2.326728 -1.497969 -0.531075
  C 2.778714 -0.803458 0.159228
  C 2.761110 -0.978027 1.477126
  C 2.499200 0.063573 2.530744
  C 3.498788 0.032422 3.687466
  C 3.372667 0.477772 -0.368056
  H 2.751356 1.036235 -1.060339
  C 4.697643 0.155429 -1.011466
  C 5.130291 0.707490 -2.133845
  O 6.329413 0.467593 -2.729371
  H 3.665908 0.980298 0.561588
  H 2.657824 -1.967885 1.918629
  H 1.502100 -0.167985 2.915526
  H 2.465571 1.069282 2.109590
  H 3.542569 -0.962448 4.125946
  H 3.210062 0.737583 4.463761
  H 4.494713 0.295462 3.337036
  H 5.310847 -0.568032 -0.488330
  H 4.556462 1.430545 -2.694502
  H 6.823262 -0.177952 -2.208689
 20
 8.982430
  H 2.549817 -1.552021 -0.522066
  C 2.806541 -0.766080 0.174285
  C 2.661500 -0.943797 1.478457
  C 2.524334 0.106526 2.543138
  C 3.532089 -0.075668 3.678113
  C 3.323281 0.512025 -0.424159
  H 2.684952 0.902640 -1.214127
  C 4.697197 0.246847 -0.977105
  C 5.098432 0.624322 -2.180704
  O 6.334169 0.421613 -2.709168
  H 3.450812 1.217581 0.401562
  H 2.513407 -1.932238 1.901510
  H 1.512717 0.001172 2.947109
  H 2.611884 1.115016 2.139559
  H 3.445332 -1.070817 4.109350
  H 3.360930 0.656365 4.464254
  H 4.547104 0.048793 3.306675
  H 5.371626 -0.290199 -0.321291
  H 4.462191 1.155672 -2.873277
  H 6.882649 -0.053007 -2.072153
 20
 4.746354
  H 2.761082 -1.572081 -0.469187
  C 2.843389 -0.728726 0.204721
  C 2.593847 -0.904024 1.492714
  C 2.536635 0.136324 2.569988
  C 3.530086 -0.167398 3.691430
  C 3.311124 0.540215 -0.446733
  H 2.655551 0.814800 -1.274565
  C 4.705902 0.336049 -0.963843
  C 5.071984 0.553041 -2.217255
  O 6.321460 0.385255 -2.723741
  H 3.329505 1.344873 0.290852
  H 2.395774 -1.901215 1.868586
  H 1.523633 0.133194 2.984431
  H 2.728497 1.133985 2.176245
  H 3.350397 -1.158527 4.102715
  H 3.435716 0.560975 4.493697
  H 4.549492 -0.134404 3.312899
  H 5.427419 -0.020496 -0.238626
  H 4.387889 0.902399 -2.976791
  H 6.911581 0.070506 -2.027571
 20
 4.126227
  H 2.752039 -1.598697 -0.441825
  C 2.811261 -0.732106 0.204684
  C 2.552056 -0.877502 1.493949
  C 2.586399 0.164110 2.568634
  C 3.578745 -0.219659 3.667110
  C 3.252974 0.522022 -0.491993
  H 2.619007 0.705142 -1.361861
  C 4.677777 0.379827 -0.938370
  C 5.082032 0.530620 -2.191706
  O 6.358599 0.410122 -2.637258
  H 3.168825 1.372729 0.187009
  H 2.272937 -1.858970 1.858749
  H 1.586684 0.243208 3.006286
  H 2.852762 1.142061 2.168552
  H 3.337432 -1.198828 4.074957
  H 3.552658 0.507009 4.476206
  H 4.589828 -0.255730 3.267500
  H 5.389894 0.125486 -0.162874
  H 4.410170 0.777588 -3.000098
  H 6.938883 0.186313 -1.897689
