 14
 0.000000
  H 1.383894 0.122605 0.355914
  C 2.456052 0.091095 0.278207
  H 3.023821 0.432960 1.127850
  C 3.069166 -0.363522 -0.851932
  C 4.466867 -0.406999 -0.961324
  C 5.196762 -0.854604 -2.077791
  C 4.596069 -1.353561 -3.323040
  H 3.511683 -1.349310 -3.315155
  O 6.493522 -0.849423 -2.065358
  H 2.456650 -0.696000 -1.678162
  H 5.031201 -0.061844 -0.102773
  H 4.962225 -2.364274 -3.516509
  H 4.963901 -0.757432 -4.161093
  H 6.918835 -0.523278 -1.251100
 14
 13.449816
  H 1.311380 0.157278 0.441986
  C 2.381955 0.132832 0.382130
  H 2.941540 0.475040 1.232605
  C 3.063877 -0.358127 -0.838246
  C 4.436144 -0.390597 -0.920202
  C 5.245457 -0.882184 -2.146566
  C 4.638351 -1.376802 -3.381003
  H 3.555778 -1.369338 -3.365183
  O 6.529357 -0.870275 -2.117529
  H 2.458845 -0.690865 -1.665257
  H 4.997075 -0.046386 -0.063885
  H 5.000255 -2.387983 -3.575818
  H 5.001999 -0.781320 -4.220391
  H 6.946862 -0.540916 -1.295329
 14
 39.900290
  H 1.245256 0.148144 0.419333
  C 2.314287 0.152110 0.430611
  H 2.874821 0.492149 1.275413
  C 3.080651 -0.358848 -0.839512
  C 4.423507 -0.361908 -0.848222
  C 5.314500 -0.910119 -2.216622
  C 4.646235 -1.383510 -3.398091
  H 3.563232 -1.349917 -3.320243
  O 6.580638 -0.881707 -2.147084
  H 2.452931 -0.685898 -1.652090
  H 5.040748 -0.033542 -0.031724
  H 4.974929 -2.404293 -3.611537
  H 4.978639 -0.795756 -4.258111
  H 6.993104 -0.550596 -1.320231
 14
 71.989950
  H 1.179888 0.162734 0.456191
  C 2.242308 0.182196 0.504785
  H 2.793061 0.522381 1.347855
  C 3.072079 -0.346304 -0.806969
  C 4.387922 -0.331870 -0.772681
  C 5.375860 -0.940418 -2.292477
  C 4.679188 -1.402820 -3.447130
  H 3.596377 -1.357601 -3.340649
  O 6.627813 -0.904410 -2.203739
  H 2.444020 -0.674066 -1.618873
  H 5.020265 -0.009802 0.027519
  H 4.992028 -2.424997 -3.668481
  H 4.996072 -0.819659 -4.313894
  H 7.037842 -0.572306 -1.372898
 14
 102.218595
  H 1.105020 0.183738 0.495468
  C 2.163353 0.210672 0.579981
  H 2.698332 0.547576 1.434181
  C 3.039620 -0.315691 -0.737502
  C 4.341733 -0.289237 -0.663541
  C 5.448269 -0.972050 -2.369010
  C 4.717716 -1.436929 -3.524921
  H 3.648410 -1.386400 -3.398037
  O 6.687633 -0.930059 -2.271659
  H 2.429365 -0.632901 -1.549526
  H 4.984030 0.023195 0.122654
  H 5.019687 -2.462700 -3.753470
  H 5.019433 -0.855081 -4.400071
  H 7.094201 -0.592654 -1.445138
 14
 121.374564
  H 1.036178 0.159989 0.386886
  C 2.085936 0.213740 0.563738
  H 2.545349 0.577577 1.454304
  C 2.978704 -0.263364 -0.557632
  C 4.277512 -0.209706 -0.408117
  C 5.544381 -1.028917 -2.478639
  C 4.743927 -1.461142 -3.587688
  H 3.688898 -1.386456 -3.390596
  O 6.791699 -0.989178 -2.414716
  H 2.417722 -0.600961 -1.419702
  H 4.990529 0.088096 0.325002
  H 5.006084 -2.489632 -3.845625
  H 5.006955 -0.877444 -4.474406
  H 7.225585 -0.632238 -1.612126
 14
 133.837153
  H 0.943985 0.160360 0.395558
  C 1.993083 0.234352 0.616218
  H 2.391162 0.619490 1.538628
  C 2.910016 -0.211137 -0.407697
  C 4.210835 -0.137206 -0.229675
  C 5.619764 -1.063625 -2.574374
  C 4.801043 -1.492372 -3.682839
  H 3.743578 -1.402128 -3.464938
  O 6.873533 -1.041182 -2.555552
  H 2.411057 -0.567016 -1.298407
  H 4.947531 0.156719 0.479069
  H 5.035974 -2.528134 -3.937556
  H 5.053191 -0.910792 -4.569607
  H 7.331316 -0.702450 -1.754573
 14
 140.005328
  H 0.856707 0.170141 0.417850
  C 1.893092 0.249923 0.677364
  H 2.208737 0.639341 1.630446
  C 2.853297 -0.141852 -0.270741
  C 4.152075 -0.055169 -0.060971
  C 5.684165 -1.091399 -2.657785
  C 4.849981 -1.525436 -3.764678
  H 3.793124 -1.423552 -3.534140
  O 6.943931 -1.098298 -2.705190
  H 2.442118 -0.520777 -1.204954
  H 4.903524 0.211331 0.622127
  H 5.072210 -2.571417 -4.004575
  H 5.097827 -0.946341 -4.666737
  H 7.431887 -0.767494 -1.908544
 14
 142.230869
  H 0.780486 0.127974 0.290034
  C 1.780397 0.236018 0.659057
  H 1.940802 0.648422 1.637092
  C 2.869580 -0.114220 -0.158192
  C 4.142796 0.023864 0.140074
  C 5.741169 -1.103899 -2.698977
  C 4.836783 -1.520521 -3.761392
  H 3.797235 -1.390224 -3.476641
  O 7.000356 -1.159992 -2.871511
  H 2.616722 -0.493933 -1.142400
  H 4.968543 0.267992 0.764642
  H 5.020315 -2.570469 -4.004722
  H 5.046144 -0.956110 -4.667033
  H 7.550703 -0.856775 -2.123222
 14
 143.124084
  H 0.736768 0.057024 0.178755
  C 1.698912 0.230473 0.648087
  H 1.722357 0.651886 1.622495
  C 2.868588 -0.055691 -0.025554
  C 4.112890 0.109765 0.342900
  C 5.796758 -1.129154 -2.751501
  C 4.829778 -1.521742 -3.777934
  H 3.812592 -1.356965 -3.450730
  O 7.042354 -1.225998 -3.015922
  H 2.733618 -0.460979 -1.036614
  H 4.996272 0.331215 0.886081
  H 4.973257 -2.577328 -4.021033
  H 5.016442 -0.966254 -4.703775
  H 7.646101 -0.938204 -2.297092
 14
 142.180770
  H 0.746743 -0.072010 0.028484
  C 1.618304 0.204288 0.611827
  H 1.483281 0.626797 1.584821
  C 2.892834 0.006741 0.117820
  C 4.104658 0.218225 0.543756
  C 5.817889 -1.152390 -2.797446
  C 4.805606 -1.516668 -3.804964
  H 3.796658 -1.302130 -3.460357
  O 7.047909 -1.290888 -3.119060
  H 2.911122 -0.398473 -0.911001
  H 5.065028 0.425570 0.979436
  H 4.895479 -2.574467 -4.030457
  H 4.999154 -0.989104 -4.735501
  H 7.684073 -1.033004 -2.414173
 14
 139.762033
  H 0.985481 -0.325360 -0.293461
  C 1.684623 0.077601 0.411906
  H 1.309084 0.537624 1.305625
  C 3.029673 0.054225 0.182102
  C 4.179823 0.382277 0.656021
  C 5.703666 -1.113854 -2.710425
  C 4.671093 -1.449072 -3.712393
  H 3.675329 -1.181277 -3.378286
  O 6.919410 -1.317340 -3.078084
  H 3.334000 -0.368569 -0.803695
  H 5.187556 0.440336 0.976185
  H 4.710041 -2.523594 -3.902123
  H 4.891945 -0.961975 -4.664210
  H 7.587011 -1.098538 -2.395978
