 15
 0.000000
  C 0.899043 0.055037 0.227430
  C 2.397915 0.058580 0.117941
  C 3.255542 -0.009346 1.366031
  C 2.534514 -0.094622 2.706023
  H 3.270512 -0.137836 3.505871
  C 2.989834 0.123191 -1.066095
  H 2.440986 0.176840 -1.990956
  H 4.063263 0.125557 -1.162106
  H 0.563091 0.018269 1.257791
  H 0.475732 -0.807407 -0.284718
  H 0.484215 0.954862 -0.224907
  H 3.900893 0.874120 1.379707
  H 3.913425 -0.878841 1.275191
  H 1.917128 -0.988580 2.766582
  H 1.905544 0.777342 2.873503
 15
 3.264399
  C 0.901669 0.104213 0.252974
  C 2.381673 0.062576 0.134843
  C 3.248536 -0.005002 1.360007
  C 2.526570 -0.104782 2.698870
  H 3.260960 -0.149782 3.502190
  C 2.963850 0.106661 -1.056597
  H 2.390264 0.164958 -1.968198
  H 4.033280 0.075841 -1.168334
  H 0.526198 0.044816 1.266314
  H 0.692567 -0.789759 -0.295971
  H 0.472804 0.961721 -0.243133
  H 3.887009 0.884661 1.372550
  H 3.914975 -0.867459 1.256632
  H 1.916825 -1.004282 2.751398
  H 1.894928 0.763756 2.872373
 15
 11.327994
  C 0.884312 0.144304 0.266245
  C 2.365961 0.071530 0.136402
  C 3.247146 0.000631 1.358197
  C 2.527161 -0.116173 2.699759
  H 3.261564 -0.164137 3.501551
  C 2.945071 0.090800 -1.057488
  H 2.372116 0.161051 -1.968185
  H 4.011937 0.018482 -1.170819
  H 0.489422 0.062749 1.265262
  H 0.864637 -0.766836 -0.287367
  H 0.436857 0.971261 -0.270078
  H 3.876805 0.898465 1.374443
  H 3.923191 -0.855474 1.245002
  H 1.923698 -1.017977 2.744246
  H 1.891866 0.745239 2.881041
 15
 21.739945
  C 0.873988 0.171216 0.282015
  C 2.355972 0.069499 0.132248
  C 3.239762 -0.001921 1.351897
  C 2.523759 -0.125018 2.693730
  H 3.258950 -0.172162 3.492531
  C 2.936771 0.080146 -1.062910
  H 2.367255 0.152803 -1.976336
  H 4.003682 -0.002681 -1.173110
  H 0.475067 0.084505 1.273152
  H 1.001413 -0.742020 -0.255452
  H 0.410662 0.969346 -0.279990
  H 3.863563 0.900299 1.367922
  H 3.919713 -0.854222 1.236211
  H 1.924515 -1.027478 2.737060
  H 1.886415 0.732160 2.878111
 15
 32.242149
  C 0.863651 0.195636 0.285660
  C 2.349028 0.068523 0.115923
  C 3.237891 -0.003764 1.355861
  C 2.527273 -0.133461 2.698492
  H 3.267729 -0.179958 3.495701
  C 2.929321 0.070972 -1.079015
  H 2.362042 0.145932 -1.990708
  H 3.994879 -0.022679 -1.188492
  H 0.450383 0.110184 1.274649
  H 1.116610 -0.727888 -0.246004
  H 0.378665 0.970875 -0.293496
  H 3.855582 0.898645 1.375735
  H 3.922367 -0.850470 1.241115
  H 1.929427 -1.042868 2.741738
  H 1.885402 0.724175 2.888607
 15
 40.925970
  C 0.850008 0.220570 0.297888
  C 2.334892 0.066408 0.120875
  C 3.238419 -0.008565 1.346425
  C 2.526642 -0.146593 2.689120
  H 3.262198 -0.193302 3.484793
  C 2.927377 0.068662 -1.076494
  H 2.366283 0.158850 -1.993141
  H 3.992720 -0.034986 -1.176395
  H 0.455278 0.157988 1.284881
  H 1.197518 -0.717685 -0.167025
  H 0.356327 0.940036 -0.347458
  H 3.847451 0.902785 1.361897
  H 3.930945 -0.852586 1.224951
  H 1.934937 -1.050760 2.727418
  H 1.885008 0.700808 2.879492
 15
 46.794162
  C 0.843743 0.248914 0.296847
  C 2.333995 0.072989 0.116065
  C 3.229135 -0.008211 1.341676
  C 2.530446 -0.164734 2.684086
  H 3.275602 -0.223980 3.473178
  C 2.929242 0.070482 -1.083820
  H 2.371034 0.182293 -1.997990
  H 3.992626 -0.051287 -1.183017
  H 0.454460 0.257530 1.296585
  H 1.276272 -0.728301 -0.073551
  H 0.337411 0.866548 -0.419804
  H 3.828074 0.903668 1.363832
  H 3.924755 -0.839480 1.212283
  H 1.935438 -1.074938 2.714945
  H 1.889346 0.686348 2.895708
 15
 51.453149
  C 0.846871 0.274445 0.300268
  C 2.332467 0.082761 0.108191
  C 3.225737 -0.004756 1.338203
  C 2.527629 -0.182872 2.681462
  H 3.274011 -0.258618 3.466128
  C 2.931723 0.075484 -1.094447
  H 2.373590 0.195428 -2.008821
  H 3.990408 -0.068527 -1.192104
  H 0.467768 0.355047 1.296986
  H 1.347077 -0.733169 0.018657
  H 0.312960 0.788010 -0.473761
  H 3.819993 0.912453 1.370923
  H 3.929889 -0.833272 1.199402
  H 1.931162 -1.088070 2.698318
  H 1.892662 0.663547 2.911657
 15
 54.720811
  C 0.852288 0.296228 0.304632
  C 2.335592 0.088276 0.105559
  C 3.227153 -0.001289 1.335364
  C 2.526882 -0.201970 2.673303
  H 3.272130 -0.295674 3.458449
  C 2.934502 0.079302 -1.102164
  H 2.376943 0.207316 -2.010698
  H 3.988722 -0.089750 -1.202342
  H 0.478179 0.456584 1.292218
  H 1.407783 -0.725762 0.112533
  H 0.293845 0.697354 -0.517616
  H 3.814093 0.921315 1.380135
  H 3.935734 -0.820048 1.188329
  H 1.924166 -1.106850 2.672264
  H 1.894061 0.643417 2.919798
 15
 58.242209
  C 0.858200 0.309286 0.302330
  C 2.336261 0.087467 0.102951
  C 3.229340 -0.000045 1.333401
  C 2.526848 -0.214633 2.679048
  H 3.272371 -0.316667 3.463832
  C 2.936705 0.076080 -1.106128
  H 2.369606 0.203180 -2.028899
  H 3.992504 -0.097624 -1.204933
  H 0.485134 0.499237 1.283532
  H 1.454039 -0.714701 0.146574
  H 0.293567 0.660099 -0.538325
  H 3.805814 0.916869 1.382326
  H 3.942719 -0.813291 1.179510
  H 1.926385 -1.114189 2.670998
  H 1.893193 0.629434 2.936691
 15
 61.334962
  C 0.860641 0.321707 0.304591
  C 2.333158 0.082168 0.105341
  C 3.229848 -0.001743 1.337095
  C 2.529165 -0.222669 2.668747
  H 3.272262 -0.328693 3.454014
  C 2.935333 0.069065 -1.106810
  H 2.370696 0.192989 -2.023108
  H 4.004297 -0.102957 -1.206618
  H 0.485218 0.529324 1.283713
  H 1.486491 -0.708706 0.170155
  H 0.294722 0.634574 -0.543189
  H 3.808310 0.929796 1.390933
  H 3.955893 -0.819997 1.180538
  H 1.926594 -1.126140 2.653202
  H 1.894303 0.619816 2.928551
 15
 64.036632
  C 0.863974 0.336566 0.303371
  C 2.342710 0.074539 0.105731
  C 3.239591 -0.004545 1.334014
  C 2.533207 -0.233328 2.674820
  H 3.276001 -0.343403 3.462058
  C 2.944763 0.060099 -1.111779
  H 2.379857 0.180440 -2.026326
  H 3.995269 -0.102502 -1.209590
  H 0.484872 0.548360 1.276502
  H 1.518485 -0.707199 0.182005
  H 0.290780 0.620845 -0.558576
  H 3.810881 0.924272 1.388515
  H 3.951484 -0.801313 1.178474
  H 1.930116 -1.135226 2.655060
  H 1.898893 0.606906 2.937461
 15
 66.533762
  C 0.865893 0.350098 0.302835
  C 2.340419 0.068341 0.109898
  C 3.241522 -0.005354 1.339073
  C 2.538022 -0.239991 2.667101
  H 3.279761 -0.350650 3.454607
  C 2.944459 0.054029 -1.109588
  H 2.379247 0.177894 -2.024606
  H 4.009281 -0.125501 -1.208102
  H 0.479233 0.559172 1.276300
  H 1.540682 -0.702863 0.189960
  H 0.294007 0.607013 -0.560691
  H 3.817548 0.944634 1.398155
  H 3.962782 -0.803759 1.181995
  H 1.933448 -1.149553 2.640693
  H 1.901795 0.597285 2.929285
 15
 68.784235
  C 0.868527 0.365242 0.300109
  C 2.345639 0.063452 0.108642
  C 3.247762 -0.005004 1.334147
  C 2.541794 -0.247669 2.672233
  H 3.281011 -0.358580 3.456783
  C 2.951800 0.049977 -1.114887
  H 2.397035 0.170642 -2.010358
  H 4.012707 -0.135451 -1.214536
  H 0.475334 0.562917 1.273573
  H 1.565054 -0.702687 0.189866
  H 0.292774 0.600446 -0.566397
  H 3.801778 0.925629 1.391860
  H 3.979554 -0.802414 1.172255
  H 1.950126 -1.146196 2.644352
  H 1.897237 0.590213 2.940707
