 14
 0.000000
  H 1.416137 0.132662 0.376567
  C 2.497069 0.135794 0.387865
  C 3.172110 0.618065 1.589480
  H 2.472165 0.927892 2.357775
  C 3.133497 -0.321849 -0.748987
  C 4.520454 -0.388322 -0.912899
  C 5.122459 -0.851106 -2.067387
  H 4.592078 -1.203509 -2.945038
  O 6.403958 -0.914613 -2.230681
  H 3.829731 1.456233 1.347076
  H 3.827698 -0.156072 1.995263
  H 2.517756 -0.652408 -1.573929
  H 5.177125 -0.067515 -0.113040
  H 6.939499 -0.606811 -1.468874
 14
 0.879416
  H 1.418047 0.121603 0.379312
  C 2.496536 0.125995 0.390164
  C 3.164342 0.621624 1.589358
  H 2.453614 0.943206 2.339893
  C 3.139116 -0.347746 -0.735133
  C 4.526007 -0.391149 -0.897862
  C 5.122083 -0.820688 -2.066803
  H 4.561480 -1.077236 -2.959010
  O 6.394975 -0.933446 -2.236977
  H 3.827186 1.453653 1.344680
  H 3.818328 -0.140731 2.011582
  H 2.543033 -0.734008 -1.550499
  H 5.195417 0.021147 -0.151272
  H 6.948933 -0.729498 -1.454004
 14
 7.005699
  H 1.391850 0.080870 0.420049
  C 2.474416 0.106598 0.408380
  C 3.167527 0.631781 1.580989
  H 2.476743 0.956388 2.347695
  C 3.109546 -0.370055 -0.717509
  C 4.487040 -0.392888 -0.882778
  C 5.099304 -0.755059 -2.082401
  H 4.629813 -0.981636 -3.031642
  O 6.384712 -0.923817 -2.187059
  H 3.797377 1.478116 1.294934
  H 3.866715 -0.098446 1.990151
  H 2.519290 -0.760329 -1.532051
  H 5.292350 -0.050894 -0.246312
  H 6.911079 -0.808448 -1.360704
 14
 8.815835
  H 1.406016 0.003550 0.465457
  C 2.478559 0.078002 0.419934
  C 3.163042 0.655264 1.578694
  H 2.466343 0.938376 2.356474
  C 3.109393 -0.395140 -0.715616
  C 4.491938 -0.400501 -0.897754
  C 5.111214 -0.676929 -2.106210
  H 4.702068 -0.759234 -3.115004
  O 6.375742 -0.968480 -2.174883
  H 3.729548 1.538555 1.271185
  H 3.944869 -0.019916 1.957038
  H 2.530392 -0.853539 -1.490396
  H 5.256898 0.000552 -0.241034
  H 6.853369 -1.035505 -1.323584
 14
 9.941357
  H 1.418006 -0.032670 0.458270
  C 2.494570 0.061136 0.419430
  C 3.181135 0.675517 1.553044
  H 2.479286 0.928027 2.345758
  C 3.124231 -0.425293 -0.708852
  C 4.502350 -0.433378 -0.891638
  C 5.126415 -0.651436 -2.113493
  H 4.735554 -0.578321 -3.122849
  O 6.373994 -1.003359 -2.189707
  H 3.667429 1.607554 1.245081
  H 3.953210 0.021465 1.961799
  H 2.519817 -0.924386 -1.451837
  H 5.230942 0.017378 -0.212532
  H 6.834317 -1.168614 -1.336336
 14
 12.914634
  H 1.413818 -0.041281 0.453076
  C 2.500496 0.027760 0.430336
  C 3.169576 0.706933 1.534035
  H 2.479348 0.938119 2.338858
  C 3.125185 -0.505141 -0.680867
  C 4.503742 -0.484396 -0.884940
  C 5.172255 -0.626106 -2.092217
  H 4.797227 -0.326842 -3.072022
  O 6.389984 -1.044730 -2.215602
  H 3.609385 1.639394 1.181630
  H 4.004186 0.111974 1.930528
  H 2.522173 -1.000625 -1.416240
  H 5.169214 0.054270 -0.205574
  H 6.813337 -1.371745 -1.384522
 14
 16.903206
  H 1.427469 -0.060781 0.451185
  C 2.510933 0.008602 0.426626
  C 3.174450 0.742742 1.509891
  H 2.480878 0.962756 2.314531
  C 3.149648 -0.549040 -0.655832
  C 4.526827 -0.524519 -0.860952
  C 5.211822 -0.589144 -2.076779
  H 4.806221 -0.134321 -2.984160
  O 6.373397 -1.093121 -2.260023
  H 3.553763 1.689080 1.140078
  H 4.030289 0.190175 1.907595
  H 2.555191 -1.070125 -1.392083
  H 5.141549 0.067794 -0.152471
  H 6.758604 -1.581316 -1.497799
 14
 26.176363
  H 1.426039 -0.196501 0.563682
  C 2.485882 -0.025753 0.428313
  C 3.180755 0.798660 1.431209
  H 2.520676 1.066330 2.241885
  C 3.094521 -0.626593 -0.649058
  C 4.460306 -0.623685 -0.888122
  C 5.299025 -0.481862 -2.003918
  H 5.050147 0.235937 -2.796738
  O 6.415982 -1.059225 -2.206799
  H 3.543575 1.728788 0.976798
  H 4.045611 0.282443 1.833131
  H 2.489959 -1.213230 -1.306574
  H 5.078562 -0.033195 -0.195355
  H 6.640024 -1.814903 -1.612438
 14
 34.258821
  H 1.424449 -0.202447 0.611205
  C 2.480584 -0.055505 0.441845
  C 3.218546 0.804210 1.384873
  H 2.578962 1.128817 2.198480
  C 3.043331 -0.675778 -0.649346
  C 4.386384 -0.696836 -0.947779
  C 5.326049 -0.442858 -1.957061
  H 5.143820 0.361192 -2.677288
  O 6.442732 -1.019203 -2.150074
  H 3.593724 1.695087 0.879540
  H 4.082749 0.282587 1.800687
  H 2.399574 -1.266433 -1.288236
  H 5.015244 -0.067666 -0.270156
  H 6.621902 -1.831180 -1.620644
 14
 40.895606
  H 1.417617 -0.163366 0.617882
  C 2.473779 -0.068315 0.449363
  C 3.248235 0.773543 1.383459
  H 2.682039 0.977524 2.288957
  C 2.999051 -0.669946 -0.677188
  C 4.313755 -0.661631 -1.043599
  C 5.355127 -0.435680 -1.942285
  H 5.264313 0.333986 -2.716922
  O 6.460148 -1.069025 -2.041021
  H 3.491490 1.730895 0.919799
  H 4.192745 0.298177 1.659559
  H 2.340574 -1.288006 -1.276671
  H 4.970436 0.085272 -0.463406
  H 6.570357 -1.859126 -1.467829
 14
 47.048701
  H 1.437626 -0.260231 0.704784
  C 2.466336 -0.071195 0.450482
  C 3.268811 0.770760 1.358686
  H 2.704980 1.027511 2.249973
  C 2.974469 -0.690317 -0.676545
  C 4.239751 -0.630837 -1.142270
  C 5.369657 -0.389640 -1.890647
  H 5.353510 0.369247 -2.677413
  O 6.451247 -1.100522 -1.956136
  H 3.553112 1.708554 0.861937
  H 4.187867 0.275276 1.654929
  H 2.303342 -1.286471 -1.284356
  H 5.029216 0.165001 -0.626550
  H 6.461978 -1.911066 -1.409107
 14
 50.247094
  H 1.440367 -0.265229 0.707110
  C 2.466545 -0.093180 0.468169
  C 3.266959 0.762126 1.364261
  H 2.740759 0.950575 2.298434
  C 2.962756 -0.659593 -0.697211
  C 4.197138 -0.583605 -1.200559
  C 5.368852 -0.372987 -1.881828
  H 5.414988 0.327605 -2.712954
  O 6.423274 -1.169107 -1.908317
  H 3.465281 1.731774 0.891632
  H 4.235964 0.311832 1.585543
  H 2.302332 -1.291391 -1.288147
  H 5.163423 0.271982 -0.759050
  H 6.369110 -1.940410 -1.314758
 14
 51.550424
  H 1.418221 -0.297345 0.710385
  C 2.450864 -0.088940 0.484249
  C 3.219471 0.770086 1.402009
  H 2.680595 0.926055 2.332213
  C 2.981174 -0.624034 -0.681984
  C 4.200456 -0.548013 -1.194823
  C 5.378189 -0.363458 -1.882289
  H 5.388838 0.260397 -2.782846
  O 6.399898 -1.250970 -1.949753
  H 3.394220 1.750384 0.950520
  H 4.199870 0.345419 1.621703
  H 2.334419 -1.248445 -1.300392
  H 5.455528 0.346517 -0.908967
  H 6.331693 -1.974441 -1.303963
 14
 51.128568
  H 1.401515 -0.260804 0.679433
  C 2.441611 -0.053920 0.485231
  C 3.193231 0.767621 1.448702
  H 2.671089 0.826367 2.399963
  C 3.001169 -0.540483 -0.688459
  C 4.213171 -0.472750 -1.200592
  C 5.405781 -0.340721 -1.899702
  H 5.398334 0.173663 -2.870657
  O 6.368334 -1.324318 -1.950043
  H 3.300437 1.789559 1.071041
  H 4.201944 0.384265 1.603366
  H 2.361942 -1.134725 -1.351350
  H 5.677390 0.463235 -1.116478
  H 6.271408 -1.983297 -1.242367
