19
 0
 C -0.06538076 0.46865128 1.44850023
 C 0.00000000 0.00000000 0.00000000
 C -0.66437637 -1.36865977 -0.13972121
 C -0.58861341 0.95390903 -1.04086818
 C -1.32095614 2.20535347 -0.62909794
 O -0.48538981 0.69015487 -2.24441923
 H 0.44056962 -0.24457696 2.10843300
 H -1.10011483 0.56381978 1.79522016
 H 0.42952508 1.43757492 1.57229493
 H 1.06233809 -0.09904593 -0.25904546
 H -1.73714245 -1.31124897 0.07479669
 H -0.21508440 -2.09395006 0.54700391
 H -0.55218171 -1.76053774 -1.15652858
 H -1.30319237 2.38555649 0.44415390
 H -2.36442233 2.12576634 -0.94548954
 H -0.85062868 3.06264798 -1.11948393
 O 3.40000000 0.00000000 0.00000000
 H 3.95870620 -0.45892961 -0.64513396
 H 4.01512328 0.25195197 0.70505260
