 19
 0.000000
  C -0.071592 0.483131 1.466276
  C -0.006551 -0.005067 0.051604
  C -0.702415 -1.331228 -0.160229
  C -0.558777 0.929846 -1.084158
  C -1.260551 2.154565 -0.611534
  O -0.435666 0.617080 -2.223036
  H 0.442540 -0.243918 2.099035
  H -1.090186 0.541185 1.845965
  H 0.444785 1.429665 1.596696
  H 1.055408 -0.083133 -0.237755
  H -1.767310 -1.286784 0.068779
  H -0.269843 -2.060633 0.526478
  H -0.585414 -1.677129 -1.184336
  H -1.232603 2.305124 0.457437
  H -2.293048 2.075197 -0.959317
  H -0.806222 2.999901 -1.132604
  O 3.353878 0.048555 -0.013998
  H 3.886539 -0.398463 -0.676678
  H 3.955808 0.310544 0.687042
 19
 -1.063769
  C -0.080749 0.471469 1.500485
  C 0.025854 -0.017620 0.089044
  C -0.646546 -1.346035 -0.147282
  C -0.478723 0.924645 -1.069864
  C -1.179047 2.158102 -0.621600
  O -0.330998 0.605069 -2.204779
  H 0.436979 -0.242727 2.141862
  H -1.106279 0.495972 1.858774
  H 0.408089 1.427750 1.642617
  H 1.097928 -0.053814 -0.194593
  H -1.711330 -1.317019 0.081461
  H -0.211852 -2.077134 0.534232
  H -0.518125 -1.677736 -1.173674
  H -1.180174 2.313593 0.447942
  H -2.200509 2.087333 -0.995826
  H -0.707056 2.995254 -1.134547
  O 3.102047 0.093569 -0.088605
  H 3.613887 -0.361200 -0.763334
  H 3.719023 0.337772 0.608594
 19
 -1.775505
  C -0.095361 0.471887 1.523844
  C 0.037282 -0.001037 0.107508
  C -0.541916 -1.370078 -0.135171
  C -0.443945 0.923004 -1.046917
  C -1.109259 2.187306 -0.626810
  O -0.327387 0.588278 -2.187267
  H 0.400992 -0.243094 2.176946
  H -1.132467 0.488491 1.853066
  H 0.369006 1.438673 1.682892
  H 1.138286 -0.001714 -0.146839
  H -1.611351 -1.404247 0.077616
  H -0.079228 -2.084710 0.543125
  H -0.392299 -1.681331 -1.166300
  H -1.093085 2.368892 0.441004
  H -2.138401 2.137128 -0.984798
  H -0.623040 3.001106 -1.165342
  O 2.870664 0.130072 -0.177768
  H 3.355480 -0.376235 -0.838503
  H 3.451173 0.287115 0.574596
 19
 -2.034888
  C -0.106777 0.457618 1.540180
  C 0.011775 0.004748 0.115449
  C -0.408995 -1.416857 -0.127748
  C -0.467423 0.908631 -1.022251
  C -1.023758 2.244881 -0.640163
  O -0.441460 0.521303 -2.162223
  H 0.358078 -0.273579 2.197921
  H -1.152573 0.499788 1.848306
  H 0.349548 1.426074 1.710941
  H 1.160543 0.051695 -0.125524
  H -1.472303 -1.553199 0.079972
  H 0.118312 -2.096918 0.537159
  H -0.250624 -1.692748 -1.168326
  H -0.925090 2.482369 0.409299
  H -2.075111 2.254149 -0.923221
  H -0.527174 2.996392 -1.251365
  O 2.659184 0.201543 -0.238180
  H 3.109437 -0.352675 -0.882396
  H 3.131333 0.163528 0.607888
 19
 -2.829774
  C -0.151495 0.454465 1.545784
  C -0.094852 0.008679 0.122583
  C -0.405580 -1.429337 -0.122073
  C -0.534627 0.894890 -0.974720
  C -1.061653 2.267526 -0.638539
  O -0.508196 0.507563 -2.139131
  H 0.331361 -0.275730 2.189897
  H -1.189520 0.505748 1.879413
  H 0.299865 1.428067 1.703803
  H 1.410618 0.066289 -0.171341
  H -1.462061 -1.616073 0.080064
  H 0.154058 -2.087234 0.536988
  H -0.236433 -1.690355 -1.165204
  H -0.977778 2.530478 0.408316
  H -2.108126 2.302170 -0.937039
  H -0.539314 2.998287 -1.253129
  O 2.475777 0.171021 -0.235698
  H 2.914950 -0.401109 -0.897237
  H 2.911573 0.116368 0.638753
 19
 -4.286208
  C -0.205754 0.451887 1.570005
  C -0.204184 0.013571 0.150100
  C -0.372301 -1.450060 -0.102026
  C -0.606229 0.894236 -0.943014
  C -1.035412 2.311492 -0.642754
  O -0.608617 0.485650 -2.109311
  H 0.277949 -0.289517 2.202005
  H -1.235652 0.532665 1.926306
  H 0.262166 1.421310 1.714924
  H 1.498268 -0.040429 -0.376277
  H -1.404159 -1.733149 0.127158
  H 0.259313 -2.063124 0.535463
  H -0.217879 -1.686949 -1.154150
  H -0.919808 2.595467 0.393803
  H -2.082395 2.411120 -0.925258
  H -0.474422 2.991060 -1.282165
  O 2.478833 0.168040 -0.268386
  H 3.064886 -0.313806 -0.891017
  H 2.775229 0.048038 0.658166
 19
 1.317919
  C -0.043097 0.455908 1.532769
  C -0.087714 0.009555 0.104374
  C -0.233835 -1.467775 -0.148581
  C -0.527941 0.884831 -0.972533
  C -0.903784 2.301442 -0.663854
  O -0.598065 0.457592 -2.135610
  H 0.434583 -0.293751 2.158796
  H -1.058851 0.563664 1.906297
  H 0.438952 1.412794 1.657258
  H 1.336002 -0.049663 -0.374176
  H -1.248510 -1.763738 0.092298
  H 0.415933 -2.067051 0.477884
  H -0.097320 -1.697404 -1.192557
  H -0.722085 2.587241 0.355002
  H -1.964271 2.425804 -0.885715
  H -0.363822 2.962638 -1.341501
  O 2.276324 0.221921 -0.180621
  H 2.946782 -0.184221 -0.777448
  H 2.536909 0.081449 0.752581
 19
 -7.722341
  C -0.219252 0.442620 1.555355
  C -0.316486 -0.006356 0.147166
  C -0.317476 -1.465962 -0.125944
  C -0.664171 0.869682 -0.937877
  C -0.952600 2.324697 -0.665825
  O -0.738484 0.433773 -2.104768
  H 0.228715 -0.325555 2.177185
  H -1.223003 0.621142 1.951209
  H 0.323400 1.378274 1.663855
  H 1.718430 0.034755 -0.295701
  H -1.315300 -1.863789 0.080311
  H 0.367100 -2.016186 0.514288
  H -0.131590 -1.662200 -1.181311
  H -0.769591 2.623230 0.357746
  H -1.998396 2.514155 -0.908394
  H -0.360759 2.933992 -1.344898
  O 2.684472 0.227742 -0.237252
  H 3.185346 -0.246332 -0.935650
  H 3.035834 0.023555 0.655164
