17

C 0.913174 0.048673 0.273151
C 2.408797 0.059146 0.08745
C 3.244471 -0.012522 1.357692
H 2.74082569157431 -0.06571148817898058 2.3002482485327067
C 2.999023 0.127499 -1.123893
H 2.5449334132350874 0.18208202406445753 -2.0912209385377274
C 4.456197 0.132471 -1.211914
C 5.195559 0.195128 -2.322449
O 6.555 0.19621 -2.341514
H 0.592769 -0.009936 1.311782
H 0.473026 -0.819226 -0.210027
H 0.473027 0.965418 -0.109326
H 3.889937 0.871493 1.389749
H 3.889934 -0.894534 1.290101
H 5.001727 0.079894 -0.280123
H 4.817683 0.25198 -3.329904
H 6.884918 0.14508 -1.435368
