 17
 0.000000
  C 0.968581 0.053756 0.183044
  C 2.473586 0.054462 0.170509
  C 3.183298 -0.020249 1.494564
  H 2.472995 -0.066582 2.315630
  C 3.129570 0.120207 -0.994622
  H 2.555143 0.171925 -1.911205
  C 4.560801 0.129748 -1.163648
  C 5.146867 0.197273 -2.360435
  O 6.484795 0.210165 -2.588871
  H 0.579239 -0.003323 1.194548
  H 0.580406 -0.794344 -0.380044
  H 0.580408 0.959823 -0.281057
  H 3.819696 0.852648 1.641544
  H 3.819697 -0.904133 1.542415
  H 5.177990 0.079701 -0.276632
  H 4.590236 0.249411 -3.284506
  H 6.957693 0.162656 -1.746802
 17
 4.350250
  C 0.961549 0.055323 0.155297
  C 2.440611 0.055172 0.157944
  C 3.161537 -0.019159 1.475280
  H 2.469669 -0.066374 2.311990
  C 3.117512 0.120452 -0.998954
  H 2.554158 0.172560 -1.922455
  C 4.550063 0.129355 -1.156681
  C 5.145544 0.196506 -2.346847
  O 6.482678 0.208712 -2.563115
  H 0.808648 -0.003986 1.206328
  H 0.534850 -0.798688 -0.364114
  H 0.534854 0.962346 -0.264738
  H 3.796709 0.854372 1.613915
  H 3.796713 -0.902743 1.514763
  H 5.160745 0.079008 -0.264360
  H 4.596625 0.248863 -3.274849
  H 6.948141 0.160907 -1.715759
 17
 14.164457
  C 0.930379 0.056637 0.131961
  C 2.413556 0.055782 0.147130
  C 3.146753 -0.018717 1.467470
  H 2.471130 -0.067104 2.324963
  C 3.111727 0.120509 -0.999987
  H 2.557904 0.173157 -1.933033
  C 4.547217 0.128821 -1.147229
  C 5.149608 0.195828 -2.334838
  O 6.488049 0.207657 -2.544431
  H 0.988737 -0.003015 1.189097
  H 0.487919 -0.807464 -0.347925
  H 0.487912 0.969254 -0.247674
  H 3.785715 0.858644 1.598526
  H 3.785732 -0.905264 1.498995
  H 5.154109 0.078383 -0.253272
  H 4.604339 0.248442 -3.267358
  H 6.941763 0.160498 -1.708524
 17
 27.204522
  C 0.907150 0.057483 0.117052
  C 2.401964 0.055549 0.151278
  C 3.139245 -0.018228 1.458732
  H 2.484382 -0.066753 2.318632
  C 3.113494 0.120195 -0.994384
  H 2.570837 0.172475 -1.920886
  C 4.540572 0.128278 -1.137619
  C 5.144344 0.195455 -2.328210
  O 6.471126 0.207156 -2.535584
  H 1.132104 -0.001009 1.153580
  H 0.459796 -0.817168 -0.341092
  H 0.459812 0.978101 -0.239771
  H 3.772417 0.850844 1.580930
  H 3.772401 -0.895507 1.482381
  H 5.148999 0.077681 -0.240870
  H 4.603562 0.247718 -3.254482
  H 6.932074 0.159196 -1.685521
