 25
 0.000000
  C 0.905405 0.048701 0.272641
  C 2.396477 0.059191 0.086679
  C 3.243488 -0.012094 1.350090
  C 2.524821 -0.087931 2.694001
  H 3.251399 -0.133301 3.498102
  C 2.991779 0.127416 -1.122391
  C 2.351722 0.204896 -2.495498
  C 0.841346 0.217058 -2.710978
  H 0.632113 0.277083 -3.774760
  C 4.453455 0.132513 -1.212651
  C 5.192924 0.194805 -2.316710
  H 6.269956 0.193543 -2.294293
  H 0.616644 -0.010173 1.315942
  H 0.460310 -0.813607 -0.216730
  H 0.460311 0.960588 -0.116616
  H 3.889891 0.870514 1.379297
  H 3.889895 -0.892386 1.279823
  H 1.898620 -0.976946 2.751752
  H 1.898612 0.788941 2.851398
  H 2.744596 -0.643239 -3.066807
  H 2.744592 1.111912 -2.967763
  H 0.379650 1.076274 -2.233507
  H 0.379649 -0.690417 -2.333197
  H 4.995203 0.079948 -0.281066
  H 4.808060 0.251491 -3.321273
 25
 10.487784
  C 0.783302 0.049594 0.256811
  C 2.400925 0.061600 0.043981
  C 3.313010 -0.016137 1.421739
  C 2.573215 -0.091054 2.749337
  H 3.289332 -0.137067 3.564851
  C 2.993393 0.129086 -1.151981
  C 2.358306 0.206632 -2.526268
  C 0.849283 0.218940 -2.744326
  H 0.644851 0.279120 -3.810894
  C 4.455661 0.133739 -1.234401
  C 5.200858 0.195686 -2.332318
  H 6.278283 0.193790 -2.298685
  H 0.510211 -0.009522 1.304407
  H 0.339681 -0.811655 -0.230055
  H 0.339682 0.960147 -0.130074
  H 3.956658 0.865351 1.453488
  H 3.956663 -0.895601 1.354124
  H 1.945837 -0.979386 2.797700
  H 1.945830 0.786195 2.897329
  H 2.753348 -0.641592 -3.095782
  H 2.753347 1.113539 -2.996743
  H 0.385943 1.078095 -2.269228
  H 0.385943 -0.688208 -2.368895
  H 4.990802 0.080968 -0.299164
  H 4.821008 0.252482 -3.338835
 25
 31.590044
  C 0.701055 0.046011 0.320237
  C 2.416484 0.064489 -0.007253
  C 3.378576 -0.021183 1.511161
  C 2.539893 -0.091804 2.762644
  H 3.203509 -0.140567 3.626950
  C 3.009456 0.132798 -1.217787
  C 2.365687 0.209993 -2.585827
  C 0.855317 0.220176 -2.766216
  H 0.636236 0.280320 -3.832042
  C 4.480349 0.136883 -1.290149
  C 5.233873 0.198387 -2.380220
  H 6.309972 0.194796 -2.316569
  H 0.554934 -0.014158 1.386452
  H 0.266062 -0.824976 -0.143356
  H 0.266059 0.963621 -0.042430
  H 4.008553 0.861772 1.545678
  H 4.008558 -0.902405 1.446134
  H 1.910464 -0.979136 2.769561
  H 1.910446 0.789114 2.869339
  H 2.758202 -0.634349 -3.163140
  H 2.758203 1.113924 -3.064486
  H 0.399793 1.079531 -2.284439
  H 0.399785 -0.687916 -2.384173
  H 4.997633 0.083618 -0.346146
  H 4.856463 0.255211 -3.387276
