 13
 0.000000
  C 1.008658 -0.072084 0.046904
  C 2.505308 -0.082774 0.023115
  C 3.217928 -0.594287 -0.981039
  C 4.660206 -0.607924 -1.006433
  C 5.370345 -1.117746 -2.007310
  H 6.444940 -1.124230 -2.018871
  H 0.647342 0.394094 0.961409
  H 0.612874 -1.086709 0.009176
  H 0.611008 0.489770 -0.796995
  H 3.007000 0.350892 0.877211
  H 2.706356 -1.026709 -1.831232
  H 5.165815 -0.173930 -0.153256
  H 4.871251 -1.551430 -2.859866
 13
 3.642255
  C 1.008160 -0.032363 0.052645
  C 2.478939 -0.075202 0.020375
  C 3.195600 -0.585259 -0.983798
  C 4.639637 -0.620633 -1.004507
  C 5.353255 -1.126778 -2.004196
  H 6.429188 -1.136061 -1.993544
  H 0.612500 0.390294 0.968698
  H 0.831218 -1.086076 -0.003053
  H 0.572038 0.480198 -0.801103
  H 3.001727 0.346857 0.870557
  H 2.690953 -1.008343 -1.844268
  H 5.138560 -0.199423 -0.140508
  H 4.877816 -1.550106 -2.873998
 13
 11.518321
  C 0.993885 -0.006872 0.051405
  C 2.471350 -0.057645 0.016963
  C 3.186037 -0.564577 -0.991864
  C 4.623678 -0.634786 -0.997424
  C 5.336810 -1.133348 -1.998553
  H 6.411609 -1.168122 -1.972256
  H 0.575339 0.390208 0.965689
  H 1.031884 -1.076371 0.019393
  H 0.530990 0.425209 -0.825767
  H 3.010897 0.352505 0.864879
  H 2.683635 -0.963009 -1.864416
  H 5.121169 -0.246540 -0.118750
  H 4.865890 -1.524565 -2.886312
 13
 22.131197
  C 0.982524 0.012318 0.052209
  C 2.459662 -0.063582 0.014058
  C 3.175798 -0.565799 -0.996589
  C 4.613929 -0.645378 -0.993335
  C 5.333920 -1.137127 -1.996244
  H 6.410441 -1.175489 -1.962848
  H 0.556388 0.394453 0.961641
  H 1.178086 -1.048051 0.029831
  H 0.501542 0.408254 -0.832520
  H 3.004997 0.338515 0.863585
  H 2.676821 -0.952441 -1.873418
  H 5.106799 -0.270112 -0.109708
  H 4.867001 -1.515753 -2.894009
 13
 31.889462
  C 0.962692 0.029356 0.054532
  C 2.450040 -0.072552 0.001753
  C 3.169998 -0.563832 -1.014092
  C 4.609956 -0.660149 -0.993853
  C 5.341239 -1.138206 -1.998533
  H 6.411184 -1.190205 -1.949645
  H 0.546294 0.428318 0.966834
  H 1.288323 -1.008466 0.083473
  H 0.464107 0.351782 -0.840573
  H 3.000924 0.317586 0.853508
  H 2.671385 -0.929909 -1.908542
  H 5.099389 -0.307574 -0.087734
  H 4.886813 -1.489033 -2.904756
 13
 40.172857
  C 0.956063 0.046031 0.058197
  C 2.443990 -0.083811 -0.005868
  C 3.172596 -0.564027 -1.028886
  C 4.599640 -0.672257 -0.994522
  C 5.340779 -1.136033 -1.999150
  H 6.425189 -1.198159 -1.936123
  H 0.555674 0.469534 0.956471
  H 1.382763 -0.980529 0.140943
  H 0.431844 0.299929 -0.850141
  H 2.980005 0.288336 0.851017
  H 2.681773 -0.907069 -1.929584
  H 5.079620 -0.342168 -0.077405
  H 4.895464 -1.465177 -2.917097
 13
 46.342927
  C 0.947731 0.062087 0.056864
  C 2.435985 -0.095877 -0.012460
  C 3.170173 -0.563969 -1.040434
  C 4.607717 -0.683195 -0.995180
  C 5.359052 -1.134869 -1.999812
  H 6.412405 -1.202951 -1.925611
  H 0.550486 0.515767 0.949668
  H 1.452893 -0.955830 0.190652
  H 0.408582 0.246493 -0.850300
  H 2.968036 0.261279 0.858661
  H 2.681333 -0.886062 -1.948253
  H 5.078367 -0.374280 -0.074717
  H 4.923552 -1.446531 -2.931095
 13
 49.986405
  C 0.944571 0.073857 0.051457
  C 2.436397 -0.106187 -0.006562
  C 3.174140 -0.551347 -1.050481
  C 4.602788 -0.697136 -0.994780
  C 5.358758 -1.130729 -2.003575
  H 6.425014 -1.220601 -1.917142
  H 0.544458 0.587412 0.908043
  H 1.516351 -0.922164 0.276870
  H 0.392544 0.132034 -0.863299
  H 2.971752 0.229588 0.876088
  H 2.684319 -0.834118 -1.974218
  H 5.071842 -0.423280 -0.056135
  H 4.927089 -1.407591 -2.952391
 13
 53.542341
  C 0.946768 0.087192 0.048070
  C 2.435787 -0.119908 -0.000052
  C 3.178895 -0.547335 -1.054881
  C 4.600491 -0.705998 -0.993550
  C 5.361208 -1.129060 -2.005095
  H 6.429309 -1.223104 -1.914258
  H 0.541852 0.623547 0.882412
  H 1.563919 -0.899770 0.320731
  H 0.391273 0.074575 -0.868202
  H 2.969618 0.204960 0.889765
  H 2.689528 -0.811787 -1.983815
  H 5.067207 -0.448768 -0.048175
  H 4.934352 -1.389499 -2.958189
 13
 56.817791
  C 0.947497 0.103126 0.042281
  C 2.437530 -0.130009 0.008723
  C 3.184528 -0.547200 -1.054734
  C 4.602265 -0.714509 -0.991068
  C 5.365127 -1.130283 -2.004657
  H 6.434261 -1.222341 -1.913216
  H 0.531806 0.638530 0.870736
  H 1.604302 -0.892384 0.340833
  H 0.390951 0.044463 -0.870961
  H 2.972292 0.195962 0.897519
  H 2.695818 -0.800495 -1.982662
  H 5.068858 -0.465539 -0.042624
  H 4.940152 -1.379596 -2.961643
 13
 59.941065
  C 0.959241 0.110861 0.040790
  C 2.435498 -0.136504 0.019849
  C 3.187149 -0.543197 -1.050921
  C 4.603217 -0.706756 -0.987386
  C 5.370718 -1.122492 -2.000665
  H 6.438095 -1.233570 -1.899617
  H 0.535753 0.634743 0.872844
  H 1.645365 -0.890286 0.343584
  H 0.403994 0.031782 -0.873259
  H 2.970811 0.191225 0.901718
  H 2.686742 -0.796181 -1.999283
  H 5.060258 -0.473027 -0.050129
  H 4.947668 -1.382934 -2.954153
 13
 62.187490
  C 0.953432 0.129135 0.029872
  C 2.442016 -0.148055 0.026975
  C 3.195815 -0.557293 -1.049350
  C 4.606678 -0.725570 -0.985878
  C 5.371948 -1.132559 -2.002210
  H 6.441041 -1.215728 -1.911835
  H 0.520570 0.643376 0.862154
  H 1.672435 -0.899510 0.349086
  H 0.400868 0.031635 -0.879903
  H 2.980715 0.188514 0.911458
  H 2.706162 -0.802992 -1.973061
  H 5.076058 -0.480107 -0.032296
  H 4.949133 -1.374570 -2.961648
 13
 64.276212
  C 0.966585 0.149727 0.021517
  C 2.440945 -0.158919 0.040884
  C 3.199308 -0.558021 -1.044358
  C 4.610930 -0.718880 -0.983507
  C 5.378995 -1.126851 -2.001389
  H 6.444456 -1.226470 -1.904631
  H 0.519417 0.640015 0.860843
  H 1.704958 -0.913100 0.355595
  H 0.412418 0.025870 -0.885601
  H 2.981381 0.187111 0.918576
  H 2.703814 -0.803674 -1.973592
  H 5.077587 -0.481073 -0.035059
  H 4.955665 -1.373344 -2.960703
 13
 65.751954
  C 0.975877 0.177937 0.009751
  C 2.443446 -0.168837 0.052937
  C 3.206133 -0.562132 -1.040688
  C 4.613849 -0.727823 -0.979198
  C 5.383320 -1.129269 -2.000775
  H 6.452765 -1.210620 -1.909555
  H 0.512743 0.634785 0.857575
  H 1.738261 -0.937934 0.362942
  H 0.418716 0.025847 -0.891616
  H 2.984970 0.187944 0.925583
  H 2.708806 -0.801504 -1.969218
  H 5.081659 -0.493536 -0.030542
  H 4.958117 -1.385069 -2.956239
