 25
 0.000000
  C 0.983089 0.157068 0.443975
  C 2.455854 0.141577 0.404004
  C 3.246546 0.604085 1.553202
  H 2.652372 0.941833 2.393758
  C 3.045652 -0.328862 -0.766534
  C 4.426133 -0.417832 -0.988881
  C 5.085526 -0.866295 -2.106911
  C 4.612154 -1.384248 -3.398876
  C 3.128473 -1.511049 -3.716758
  C 2.930965 -2.074522 -5.122421
  H 6.167288 -0.851877 -2.070722
  H 0.570072 0.531742 1.375946
  H 0.598849 -0.850907 0.278494
  H 0.598081 0.769475 -0.373201
  H 3.901891 1.419340 1.239471
  H 3.902621 -0.200842 1.891091
  H 2.373692 -0.643144 -1.547891
  H 5.058617 -0.090378 -0.173422
  H 5.082171 -2.369327 -3.523410
  H 5.082989 -0.758615 -4.169412
  H 2.647491 -0.532880 -3.669672
  H 2.646766 -2.185413 -3.007141
  H 3.378566 -1.424595 -5.870872
  H 1.870865 -2.163779 -5.346234
  H 3.377916 -3.061805 -5.214490
 25
 -0.343261
  C 0.986171 0.155235 0.465912
  C 2.456051 0.131753 0.394958
  C 3.248338 0.618139 1.539034
  H 2.614549 0.951797 2.355927
  C 3.041127 -0.346456 -0.772755
  C 4.421892 -0.425129 -0.987895
  C 5.080847 -0.875978 -2.111306
  C 4.614186 -1.390000 -3.397516
  C 3.129225 -1.516984 -3.718593
  C 2.932459 -2.071949 -5.131744
  H 6.164017 -0.850268 -2.051225
  H 0.619202 0.478640 1.433538
  H 0.574133 -0.827965 0.227986
  H 0.592790 0.822780 -0.298439
  H 3.896476 1.443977 1.234585
  H 3.909586 -0.163621 1.905077
  H 2.369551 -0.675081 -1.552350
  H 5.058332 -0.094190 -0.177403
  H 5.095522 -2.369987 -3.532750
  H 5.094768 -0.773379 -4.168447
  H 2.647779 -0.537280 -3.661500
  H 2.649338 -2.196502 -3.010880
  H 3.381045 -1.415211 -5.876096
  H 1.870494 -2.162621 -5.360356
  H 3.382913 -3.059464 -5.231043
 25
 -0.378251
  C 0.987256 0.147597 0.484392
  C 2.455906 0.128882 0.402996
  C 3.248446 0.638594 1.529322
  H 2.616300 0.978694 2.345201
  C 3.038783 -0.358912 -0.764671
  C 4.419834 -0.430728 -0.985507
  C 5.076794 -0.881776 -2.105545
  C 4.610425 -1.398315 -3.400116
  C 3.130007 -1.525782 -3.727372
  C 2.942099 -2.066540 -5.138219
  H 6.161145 -0.854208 -2.043344
  H 0.629397 0.409100 1.475595
  H 0.564003 -0.811282 0.175487
  H 0.596359 0.879876 -0.225980
  H 3.885580 1.464317 1.208213
  H 3.920939 -0.133823 1.904159
  H 2.362278 -0.704485 -1.539850
  H 5.057925 -0.094906 -0.177251
  H 5.091200 -2.374351 -3.535242
  H 5.094791 -0.780368 -4.172074
  H 2.646685 -0.549253 -3.664505
  H 2.648687 -2.212781 -3.027924
  H 3.390947 -1.403986 -5.872672
  H 1.886691 -2.157492 -5.370673
  H 3.395717 -3.051724 -5.243364
 25
 -0.447439
  C 0.988106 0.131792 0.491513
  C 2.456056 0.122305 0.402700
  C 3.249037 0.666638 1.517900
  H 2.616098 1.016258 2.328135
  C 3.038880 -0.376774 -0.758571
  C 4.420433 -0.439160 -0.983615
  C 5.078246 -0.892568 -2.103472
  C 4.613580 -1.407647 -3.394136
  C 3.133294 -1.529728 -3.723925
  C 2.945005 -2.057751 -5.143730
  H 6.160295 -0.863279 -2.042094
  H 0.634865 0.333250 1.497928
  H 0.559793 -0.798751 0.120243
  H 0.599150 0.916656 -0.162830
  H 3.875259 1.491658 1.177909
  H 3.931165 -0.089910 1.906887
  H 2.368106 -0.739693 -1.519601
  H 5.057417 -0.094296 -0.180144
  H 5.092397 -2.386121 -3.528060
  H 5.101657 -0.791547 -4.165742
  H 2.651763 -0.553264 -3.651046
  H 2.650940 -2.222218 -3.032264
  H 3.395929 -1.388152 -5.872571
  H 1.886914 -2.145332 -5.378687
  H 3.395914 -3.039878 -5.257885
 25
 -0.500061
  C 0.990451 0.110871 0.500518
  C 2.457599 0.115256 0.402382
  C 3.246495 0.698969 1.498888
  H 2.610996 1.061567 2.301751
  C 3.041547 -0.399008 -0.750381
  C 4.423854 -0.452501 -0.978613
  C 5.082082 -0.909632 -2.095915
  C 4.617248 -1.421501 -3.387871
  C 3.136035 -1.532359 -3.721748
  C 2.947508 -2.036298 -5.147586
  H 6.162582 -0.882503 -2.033284
  H 0.645551 0.255981 1.519935
  H 0.560436 -0.792865 0.079079
  H 0.596843 0.940582 -0.098743
  H 3.863774 1.524795 1.133876
  H 3.937994 -0.037982 1.905640
  H 2.373221 -0.785644 -1.499862
  H 5.059814 -0.100026 -0.178581
  H 5.089877 -2.402697 -3.522075
  H 5.111677 -0.806767 -4.159173
  H 2.660151 -0.560532 -3.633774
  H 2.653139 -2.228885 -3.047373
  H 3.404975 -1.353425 -5.869111
  H 1.889913 -2.115013 -5.384528
  H 3.395717 -3.022603 -5.276737
 25
 -0.596633
  C 0.992585 0.100790 0.510327
  C 2.458086 0.115538 0.401727
  C 3.245924 0.718631 1.488034
  H 2.608876 1.093803 2.283884
  C 3.042034 -0.404375 -0.749276
  C 4.423983 -0.453688 -0.978697
  C 5.083272 -0.913764 -2.093801
  C 4.620488 -1.427999 -3.386394
  C 3.141699 -1.535223 -3.724202
  C 2.956678 -2.034948 -5.153504
  H 6.163711 -0.886220 -2.029924
  H 0.657147 0.177228 1.540993
  H 0.553918 -0.769802 0.027938
  H 0.599329 0.975822 -0.016840
  H 3.861920 1.535781 1.111208
  H 3.936569 -0.013731 1.908561
  H 2.374461 -0.801171 -1.494655
  H 5.059655 -0.094912 -0.179027
  H 5.090673 -2.410706 -3.517151
  H 5.117765 -0.816979 -4.156291
  H 2.664091 -0.556753 -3.633691
  H 2.651110 -2.239959 -3.047323
  H 3.414005 -1.355867 -5.866522
  H 1.901516 -2.111432 -5.393882
  H 3.401789 -3.017249 -5.284050
 25
 -0.690921
  C 0.992957 0.100603 0.515271
  C 2.457974 0.115557 0.398916
  C 3.244437 0.724180 1.483270
  H 2.606320 1.103861 2.275726
  C 3.043165 -0.405478 -0.751329
  C 4.425600 -0.454160 -0.978900
  C 5.087161 -0.912233 -2.093859
  C 4.626486 -1.424601 -3.387188
  C 3.147036 -1.539334 -3.725095
  C 2.963593 -2.042883 -5.154265
  H 6.167569 -0.882852 -2.028933
  H 0.666912 0.097204 1.551294
  H 0.542184 -0.723885 -0.031122
  H 0.604293 1.023101 0.071504
  H 3.862018 1.537990 1.103650
  H 3.932800 -0.006834 1.910514
  H 2.375427 -0.802919 -1.498098
  H 5.059860 -0.097231 -0.177829
  H 5.103134 -2.405287 -3.521787
  H 5.119968 -0.808832 -4.154722
  H 2.665899 -0.564108 -3.636626
  H 2.661405 -2.242846 -3.048206
  H 3.418921 -1.362142 -5.869634
  H 1.905512 -2.124180 -5.395215
  H 3.413318 -3.024832 -5.283111
 25
 -0.764697
  C 0.995038 0.111015 0.509619
  C 2.459154 0.117971 0.393795
  C 3.246062 0.714783 1.489087
  H 2.606501 1.082244 2.287024
  C 3.044849 -0.394465 -0.758552
  C 4.427204 -0.444241 -0.983607
  C 5.090498 -0.898280 -2.100793
  C 4.631581 -1.414383 -3.390262
  C 3.152383 -1.543992 -3.722759
  C 2.967960 -2.064110 -5.148744
  H 6.172187 -0.863658 -2.037329
  H 0.676143 0.013530 1.544560
  H 0.529670 -0.651701 -0.108156
  H 0.619146 1.080812 0.167458
  H 3.859842 1.535601 1.119910
  H 3.937827 -0.018537 1.905660
  H 2.378423 -0.780039 -1.511676
  H 5.060202 -0.090684 -0.180599
  H 5.119954 -2.396373 -3.526931
  H 5.115058 -0.795505 -4.157787
  H 2.663738 -0.572326 -3.642184
  H 2.677381 -2.240183 -3.041218
  H 3.416534 -1.389145 -5.870759
  H 1.906301 -2.154599 -5.387104
  H 3.423687 -3.044798 -5.269267
 25
 -0.827666
  C 0.996580 0.123305 0.508343
  C 2.461480 0.122422 0.389689
  C 3.245633 0.702545 1.492346
  H 2.608864 1.045517 2.293469
  C 3.047319 -0.380387 -0.765882
  C 4.431966 -0.432801 -0.988800
  C 5.095231 -0.882310 -2.105427
  C 4.636574 -1.404203 -3.394969
  C 3.156143 -1.547265 -3.723966
  C 2.973083 -2.083049 -5.144157
  H 6.177623 -0.841413 -2.043462
  H 0.682842 -0.073138 1.530120
  H 0.519241 -0.569391 -0.174429
  H 0.631502 1.130374 0.274200
  H 3.848201 1.539361 1.137197
  H 3.947928 -0.029717 1.891413
  H 2.381788 -0.759812 -1.522320
  H 5.064710 -0.081623 -0.183623
  H 5.132343 -2.381281 -3.531209
  H 5.115402 -0.781151 -4.167954
  H 2.661365 -0.578570 -3.652873
  H 2.685404 -2.241502 -3.032265
  H 3.414514 -1.415944 -5.870341
  H 1.916854 -2.181422 -5.379318
  H 3.435211 -3.064029 -5.255744
 25
 -0.866659
  C 0.997805 0.134362 0.512478
  C 2.461573 0.127794 0.386895
  C 3.249357 0.699919 1.493730
  H 2.614885 1.011873 2.313446
  C 3.046871 -0.371285 -0.769819
  C 4.430833 -0.425129 -0.992806
  C 5.094726 -0.872834 -2.110181
  C 4.638001 -1.398214 -3.399025
  C 3.162729 -1.549371 -3.727888
  C 2.984967 -2.095291 -5.144680
  H 6.177229 -0.829414 -2.048356
  H 0.697482 -0.155461 1.517696
  H 0.506802 -0.493755 -0.224002
  H 0.638152 1.160840 0.387125
  H 3.821925 1.560521 1.147270
  H 3.976971 -0.020450 1.864589
  H 2.379173 -0.740759 -1.532228
  H 5.063374 -0.079192 -0.185894
  H 5.137222 -2.372059 -3.532753
  H 5.114292 -0.776870 -4.171581
  H 2.664626 -0.581964 -3.664313
  H 2.693293 -2.241690 -3.030936
  H 3.426141 -1.426342 -5.878993
  H 1.929881 -2.201507 -5.380109
  H 3.453207 -3.075105 -5.249116
 25
 -0.744849
  C 1.003651 0.112007 0.518368
  C 2.465413 0.129723 0.387656
  C 3.246997 0.749998 1.471101
  H 2.615179 1.026620 2.311188
  C 3.052666 -0.390606 -0.759669
  C 4.435374 -0.453708 -0.978229
  C 5.100834 -0.900374 -2.095720
  C 4.644393 -1.415566 -3.390783
  C 3.167760 -1.539282 -3.731707
  C 2.990355 -2.066896 -5.155424
  H 6.178409 -0.856395 -2.033497
  H 0.734749 -0.208539 1.524676
  H 0.518509 -0.519326 -0.219988
  H 0.616584 1.129500 0.430342
  H 3.748737 1.649125 1.104358
  H 4.036206 0.081918 1.820948
  H 2.385691 -0.771901 -1.517123
  H 5.068507 -0.094457 -0.173287
  H 5.123646 -2.394278 -3.522149
  H 5.137356 -0.801339 -4.157400
  H 2.684075 -0.564139 -3.659774
  H 2.682110 -2.231041 -3.047554
  H 3.452472 -1.395891 -5.882645
  H 1.934568 -2.150023 -5.399931
  H 3.439671 -3.053977 -5.266493
 25
 -0.681628
  C 1.015944 0.031423 0.562105
  C 2.468926 0.136222 0.381800
  C 3.238055 0.849707 1.416493
  H 2.614973 1.115326 2.264144
  C 3.061827 -0.408047 -0.752127
  C 4.445193 -0.482358 -0.965341
  C 5.108915 -0.952732 -2.074375
  C 4.650168 -1.460106 -3.369856
  C 3.174342 -1.502175 -3.738373
  C 2.996013 -1.992059 -5.173521
  H 6.190199 -0.941373 -1.999928
  H 0.787525 -0.258421 1.589225
  H 0.551307 -0.658375 -0.136262
  H 0.564128 1.018404 0.430266
  H 3.662923 1.766136 0.999406
  H 4.081548 0.254639 1.764885
  H 2.397545 -0.811665 -1.498998
  H 5.078043 -0.135874 -0.159346
  H 5.075288 -2.469279 -3.477786
  H 5.192844 -0.886546 -4.135336
  H 2.739705 -0.504535 -3.652702
  H 2.640263 -2.184270 -3.075290
  H 3.510982 -1.341314 -5.875152
  H 1.942346 -2.006650 -5.441143
  H 3.386376 -3.000513 -5.293377
 25
 -0.870110
  C 1.008844 0.109594 0.519144
  C 2.471971 0.144375 0.379299
  C 3.253343 0.749524 1.476815
  H 2.616979 1.020392 2.317882
  C 3.061996 -0.364331 -0.772570
  C 4.444046 -0.414695 -0.992558
  C 5.110282 -0.875722 -2.104801
  C 4.655492 -1.406768 -3.388760
  C 3.178959 -1.525541 -3.730248
  C 3.001818 -2.061978 -5.144282
  H 6.193077 -0.842544 -2.037177
  H 0.732360 -0.252508 1.508940
  H 0.521528 -0.486221 -0.246423
  H 0.617731 1.131209 0.468705
  H 3.761509 1.647150 1.124025
  H 4.034766 0.073211 1.824048
  H 2.398934 -0.745967 -1.530001
  H 5.076580 -0.059265 -0.186151
  H 5.129430 -2.390704 -3.502856
  H 5.153359 -0.808922 -4.163235
  H 2.700013 -0.546248 -3.668305
  H 2.687657 -2.210940 -3.037985
  H 3.468583 -1.404199 -5.872201
  H 1.946694 -2.138810 -5.390609
  H 3.443242 -3.051132 -5.244889
 25
 -0.697297
  C 1.004955 0.154688 0.510328
  C 2.463092 0.141782 0.377963
  C 3.250616 0.719299 1.481773
  H 2.617099 1.016794 2.308112
  C 3.055284 -0.364726 -0.772789
  C 4.437348 -0.413711 -0.989913
  C 5.106579 -0.861984 -2.105415
  C 4.656442 -1.380514 -3.396554
  C 3.180176 -1.537471 -3.729990
  C 3.008761 -2.094599 -5.143850
  H 6.188270 -0.822023 -2.036979
  H 0.751460 -0.283547 1.477313
  H 0.502348 -0.384150 -0.289152
  H 0.629759 1.178868 0.571528
  H 3.794988 1.598355 1.133920
  H 3.999209 0.014975 1.842060
  H 2.391823 -0.745257 -1.535196
  H 5.066062 -0.044550 -0.189324
  H 5.158925 -2.349815 -3.535396
  H 5.132833 -0.750774 -4.164918
  H 2.681438 -0.569901 -3.676716
  H 2.708277 -2.227417 -3.026682
  H 3.458622 -1.433087 -5.882141
  H 1.953340 -2.197992 -5.385601
  H 3.471485 -3.074285 -5.236575
