 28
 0.000000
  C 0.980489 0.142867 0.407473
  C 2.454521 0.142567 0.406069
  C 3.238879 0.610046 1.568824
  C 2.463340 1.099040 2.786076
  H 3.146956 1.411974 3.564454
  C 3.065871 -0.323907 -0.755185
  C 4.444734 -0.415714 -0.984599
  C 5.096066 -0.866109 -2.107276
  C 4.609597 -1.384089 -3.398627
  C 3.122978 -1.507027 -3.706351
  C 2.914539 -2.070232 -5.110497
  H 6.176490 -0.857915 -2.086943
  H 0.547600 0.513289 1.329361
  H 0.609883 -0.868931 0.237081
  H 0.609430 0.755204 -0.415631
  H 3.897845 1.418541 1.231971
  H 3.898249 -0.206402 1.885041
  H 1.830122 0.307897 3.183447
  H 1.829779 1.944939 2.525629
  H 2.399561 -0.639843 -1.541122
  H 5.084799 -0.090620 -0.175297
  H 5.073542 -2.371311 -3.524652
  H 5.074168 -0.758068 -4.171987
  H 2.644517 -0.527795 -3.657046
  H 2.643915 -2.180401 -2.994086
  H 3.358538 -1.421524 -5.862132
  H 1.852433 -2.156342 -5.326129
  H 3.358000 -3.058824 -5.205339
 28
 -0.261416
  C 0.959613 -0.004320 0.503142
  C 2.427206 0.072010 0.427409
  C 3.231609 0.668410 1.515677
  C 2.477693 1.241040 2.707522
  H 3.189386 1.652599 3.418515
  C 3.028571 -0.444444 -0.718328
  C 4.411141 -0.545782 -0.928346
  C 5.065297 -0.998044 -2.048570
  C 4.601233 -1.438876 -3.368268
  C 3.122118 -1.484333 -3.724528
  C 2.936678 -1.934066 -5.171704
  H 6.146098 -1.024159 -1.969715
  H 0.556677 0.371381 1.434942
  H 0.633684 -1.035432 0.357412
  H 0.519048 0.555972 -0.324122
  H 3.860854 1.455706 1.085756
  H 3.930953 -0.094278 1.878085
  H 1.902393 0.475184 3.221858
  H 1.808411 2.043125 2.406392
  H 2.363761 -0.811158 -1.482803
  H 5.050118 -0.251658 -0.106382
  H 5.042251 -2.431012 -3.539819
  H 5.122479 -0.806183 -4.101431
  H 2.678496 -0.494234 -3.609533
  H 2.601486 -2.190723 -3.076235
  H 3.423924 -1.246833 -5.859805
  H 1.880244 -1.969780 -5.425348
  H 3.353177 -2.926595 -5.328469
 28
 -0.014803
  C 0.954207 -0.119159 0.598692
  C 2.409278 0.009729 0.431667
  C 3.227746 0.731308 1.433983
  C 2.496529 1.386281 2.597647
  H 3.219064 1.889673 3.235073
  C 3.000901 -0.563310 -0.689589
  C 4.386529 -0.664527 -0.884775
  C 5.058306 -1.114748 -1.994446
  C 4.612425 -1.471684 -3.345301
  C 3.139708 -1.443018 -3.728345
  C 2.965985 -1.774241 -5.208356
  H 6.134008 -1.188587 -1.884334
  H 0.599626 0.237021 1.556876
  H 0.650333 -1.157091 0.455706
  H 0.444920 0.438465 -0.191152
  H 3.812474 1.497693 0.913876
  H 3.964420 0.029061 1.841351
  H 1.974591 0.653706 3.208342
  H 1.784406 2.131297 2.251891
  H 2.338117 -0.992720 -1.422780
  H 5.008231 -0.386264 -0.041977
  H 5.024693 -2.466125 -3.565614
  H 5.168998 -0.815249 -4.030481
  H 2.723638 -0.451876 -3.541094
  H 2.586630 -2.180296 -3.144560
  H 3.484069 -1.050789 -5.833947
  H 1.913418 -1.759251 -5.479530
  H 3.356971 -2.763579 -5.435345
 28
 1.148193
  C 0.934553 -0.210245 0.720485
  C 2.368844 -0.095310 0.427316
  C 3.210841 0.768125 1.298969
  C 2.527135 1.512701 2.438525
  H 3.268530 2.107687 2.966306
  C 2.947800 -0.756559 -0.646178
  C 4.338802 -0.821341 -0.831877
  C 5.042084 -1.274172 -1.918965
  C 4.629426 -1.523842 -3.304052
  C 3.169227 -1.389916 -3.712203
  C 3.012595 -1.582046 -5.218107
  H 6.105742 -1.412946 -1.765211
  H 0.665507 0.178409 1.692682
  H 0.609805 -1.247968 0.630239
  H 0.363872 0.332711 -0.038019
  H 3.716456 1.504723 0.665655
  H 4.006564 0.152707 1.732777
  H 2.083656 0.829516 3.158786
  H 1.760486 2.190860 2.072614
  H 2.296152 -1.293332 -1.316391
  H 4.933992 -0.511887 0.025682
  H 4.997377 -2.520574 -3.582425
  H 5.236174 -0.848370 -3.924808
  H 2.795121 -0.400966 -3.441631
  H 2.568534 -2.145449 -3.204923
  H 3.578409 -0.833582 -5.768407
  H 1.968244 -1.491601 -5.505766
  H 3.361132 -2.566040 -5.523793
 28
 5.287001
  C 0.913502 -0.292282 0.848595
  C 2.319875 -0.241720 0.431061
  C 3.172210 0.783669 1.113445
  C 2.558101 1.612351 2.237392
  H 3.312210 2.298191 2.616039
  C 2.892199 -1.013773 -0.563042
  C 4.277685 -0.979376 -0.790940
  C 5.017829 -1.456750 -1.841270
  C 4.651857 -1.582030 -3.256247
  C 3.221294 -1.266917 -3.674739
  C 3.071190 -1.354472 -5.190410
  H 6.051364 -1.705102 -1.630576
  H 0.720483 0.246349 1.763930
  H 0.584477 -1.328497 0.951239
  H 0.282700 0.126614 0.059634
  H 3.540581 1.479656 0.352633
  H 4.055786 0.294929 1.534783
  H 2.235524 0.988757 3.067539
  H 1.719277 2.211274 1.892054
  H 2.272110 -1.702580 -1.114878
  H 4.847872 -0.557852 0.047283
  H 4.920139 -2.594155 -3.586908
  H 5.343301 -0.931873 -3.809837
  H 2.950906 -0.261497 -3.347169
  H 2.533100 -1.974984 -3.215786
  H 3.726537 -0.644016 -5.689414
  H 2.048761 -1.132076 -5.484483
  H 3.314606 -2.352260 -5.548371
 28
 12.624610
  C 0.887820 -0.371904 0.935314
  C 2.275377 -0.370176 0.445902
  C 3.112159 0.777174 0.950705
  C 2.555979 1.671599 2.060650
  H 3.334424 2.366648 2.367897
  C 2.859211 -1.237716 -0.455245
  C 4.220158 -1.110581 -0.761360
  C 4.994643 -1.606046 -1.777739
  C 4.675909 -1.640824 -3.212281
  C 3.318410 -1.080166 -3.632831
  C 3.145183 -1.160851 -5.149588
  H 5.981226 -1.972477 -1.517744
  H 0.707893 0.349971 1.712578
  H 0.608868 -1.368322 1.281969
  H 0.207578 -0.161689 0.106930
  H 3.380816 1.419309 0.106241
  H 4.049759 0.384219 1.360167
  H 2.263881 1.093588 2.934800
  H 1.708445 2.266632 1.724893
  H 2.282985 -2.040319 -0.886497
  H 4.760275 -0.516668 0.001808
  H 4.779441 -2.676985 -3.564959
  H 5.476287 -1.093305 -3.726042
  H 3.233111 -0.038858 -3.314819
  H 2.518637 -1.644894 -3.156546
  H 3.871629 -0.528858 -5.659650
  H 2.148463 -0.829352 -5.438016
  H 3.275602 -2.183684 -5.502671
 28
 28.603665
  C 0.920138 -0.454408 1.317390
  C 2.182477 -0.530033 0.562628
  C 3.049372 0.712004 0.666039
  C 2.630158 1.827090 1.635999
  H 3.344902 2.636938 1.571226
  C 2.650196 -1.519337 -0.282674
  C 3.958690 -1.401340 -0.761015
  C 4.826076 -1.850145 -1.713275
  C 4.697698 -1.656303 -3.163649
  C 3.384788 -1.010538 -3.613028
  C 3.359965 -0.811333 -5.135130
  H 5.724908 -2.349207 -1.386261
  H 0.876670 0.386922 1.973440
  H 0.782687 -1.359971 1.900283
  H 0.070598 -0.418334 0.636279
  H 3.119890 1.165676 -0.320699
  H 4.076045 0.479139 0.983932
  H 2.601875 1.486041 2.663418
  H 1.658140 2.232330 1.374753
  H 2.078835 -2.401628 -0.483258
  H 4.508378 -0.744554 0.034450
  H 4.798483 -2.647535 -3.637083
  H 5.551410 -1.062392 -3.507600
  H 3.270359 -0.048522 -3.127868
  H 2.539106 -1.641902 -3.315533
  H 4.223069 -0.227261 -5.458395
  H 2.449040 -0.288345 -5.440808
  H 3.378703 -1.775297 -5.663871
 28
 57.140570
  C 0.887506 -0.421856 1.399490
  C 2.110980 -0.491205 0.573582
  C 3.047585 0.659557 0.566836
  C 2.776056 1.820925 1.521599
  H 3.560111 2.568238 1.441252
  C 2.476792 -1.563786 -0.222082
  C 3.694082 -1.603473 -0.832126
  C 4.677397 -1.912475 -1.660144
  C 4.694440 -1.639822 -3.130179
  C 3.404963 -1.016452 -3.655097
  C 3.480069 -0.783946 -5.159095
  H 5.583981 -2.374147 -1.283736
  H 0.837299 0.477037 2.001005
  H 0.830104 -1.289101 2.057507
  H -0.003095 -0.464135 0.769118
  H 3.147722 1.065293 -0.443219
  H 4.127442 0.383683 0.922279
  H 2.713439 1.491147 2.555842
  H 1.841164 2.307025 1.250773
  H 1.819364 -2.416890 -0.324262
  H 4.361653 -0.530953 0.248208
  H 4.885365 -2.591517 -3.643327
  H 5.539744 -0.986639 -3.355084
  H 3.225429 -0.065415 -3.153858
  H 2.564200 -1.677495 -3.431504
  H 4.296319 -0.108082 -5.407161
  H 2.553639 -0.347582 -5.526078
  H 3.644403 -1.722091 -5.688036
 28
 67.304765
  C 0.882369 -0.414640 1.367014
  C 2.128724 -0.501127 0.569058
  C 3.103153 0.601168 0.534725
  C 2.818622 1.827282 1.401315
  H 3.614691 2.560273 1.314993
  C 2.448739 -1.626518 -0.187277
  C 3.616071 -1.760347 -0.844461
  C 4.621774 -1.983957 -1.633138
  C 4.679636 -1.633113 -3.094689
  C 3.390753 -1.012280 -3.625308
  C 3.498591 -0.704653 -5.113709
  H 5.524356 -2.456600 -1.258072
  H 0.803834 0.508280 1.927791
  H 0.823832 -1.251420 2.063744
  H 0.008238 -0.495704 0.720258
  H 3.268034 0.940432 -0.490030
  H 4.196164 0.395628 1.035806
  H 2.693283 1.569965 2.447157
  H 1.907791 2.299979 1.046175
  H 1.745172 -2.446518 -0.232915
  H 4.351860 -0.415017 0.446083
  H 4.903545 -2.547280 -3.650206
  H 5.516701 -0.949347 -3.257795
  H 3.175242 -0.089339 -3.083773
  H 2.560805 -1.700432 -3.456333
  H 4.308460 -0.004628 -5.306006
  H 2.574751 -0.266241 -5.482366
  H 3.692179 -1.611571 -5.682409
 28
 70.444480
  C 0.942145 -0.455777 1.429766
  C 2.171076 -0.514203 0.596894
  C 3.191712 0.633534 0.527668
  C 2.819210 1.834695 1.426830
  H 3.518009 2.658997 1.305300
  C 2.427442 -1.646135 -0.177669
  C 3.533478 -1.845975 -0.911991
  C 4.556295 -2.060364 -1.671385
  C 4.667701 -1.672616 -3.124375
  C 3.400030 -1.031294 -3.680579
  C 3.562129 -0.665924 -5.150821
  H 5.440991 -2.556488 -1.282287
  H 0.835430 0.473888 1.972926
  H 0.936751 -1.274204 2.152565
  H 0.054727 -0.588270 0.808497
  H 3.247810 0.968160 -0.515572
  H 4.327525 0.733583 0.962741
  H 2.786621 1.559041 2.476473
  H 1.841305 2.205807 1.133797
  H 1.685200 -2.434864 -0.176526
  H 4.045014 -0.231491 0.658797
  H 4.904779 -2.573232 -3.697843
  H 5.512995 -0.988325 -3.241835
  H 3.162251 -0.130706 -3.112048
  H 2.565165 -1.725912 -3.568323
  H 4.378604 0.040482 -5.285627
  H 2.651829 -0.213015 -5.536353
  H 3.777699 -1.550718 -5.746533
 28
 69.419164
  C 1.068335 -0.532751 1.592848
  C 2.219778 -0.557318 0.659701
  C 3.198807 0.703165 0.504765
  C 2.743589 1.884168 1.380291
  H 3.361261 2.756831 1.187672
  C 2.429366 -1.675704 -0.160852
  C 3.484393 -1.856118 -0.964580
  C 4.509232 -2.088011 -1.714104
  C 4.659737 -1.676867 -3.155167
  C 3.422078 -0.986813 -3.720847
  C 3.625866 -0.590614 -5.177909
  H 5.371835 -2.614132 -1.315256
  H 0.994399 0.383507 2.163117
  H 1.128156 -1.366009 2.296308
  H 0.138860 -0.662117 1.036959
  H 3.165044 0.969600 -0.556405
  H 4.322259 0.796018 0.764051
  H 2.805330 1.650293 2.438323
  H 1.720031 2.159515 1.141696
  H 1.681599 -2.458258 -0.134754
  H 3.727865 -0.318841 0.806221
  H 4.880861 -2.572517 -3.742161
  H 5.526954 -1.016321 -3.242697
  H 3.198336 -0.093904 -3.134729
  H 2.565915 -1.660013 -3.643436
  H 4.464375 0.095546 -5.278110
  H 2.737032 -0.102787 -5.570816
  H 3.829455 -1.466497 -5.790819
 28
 55.773066
  C 1.224917 -0.573489 1.723487
  C 2.312559 -0.608313 0.720466
  C 3.197512 0.751447 0.451936
  C 2.682793 1.935902 1.260154
  H 3.243957 2.820289 0.983723
  C 2.424241 -1.733142 -0.152097
  C 3.431236 -1.938663 -0.999291
  C 4.457896 -2.161642 -1.743160
  C 4.645639 -1.699669 -3.162720
  C 3.436382 -0.949091 -3.719462
  C 3.679442 -0.498410 -5.158474
  H 5.292920 -2.731645 -1.349552
  H 1.212289 0.336033 2.314498
  H 1.308041 -1.423245 2.405691
  H 0.260992 -0.669350 1.222223
  H 3.086611 0.942463 -0.618689
  H 4.289313 0.809229 0.626451
  H 2.804220 1.783100 2.325427
  H 1.637763 2.134284 1.051120
  H 1.639592 -2.475666 -0.101821
  H 3.473788 -0.514942 0.942837
  H 4.851458 -2.576126 -3.782636
  H 5.533924 -1.062006 -3.205851
  H 3.228727 -0.073648 -3.098785
  H 2.558150 -1.599814 -3.685079
  H 4.540381 0.166809 -5.215833
  H 2.810977 0.033071 -5.546080
  H 3.868341 -1.355515 -5.805421
 28
 36.337772
  C 1.432588 -0.603606 1.906971
  C 2.447366 -0.631074 0.811029
  C 3.036096 0.755434 0.279053
  C 2.486917 1.978710 0.992383
  H 2.925755 2.867205 0.543368
  C 2.462129 -1.781466 -0.083277
  C 3.403628 -2.022267 -0.985554
  C 4.357831 -2.323450 -1.795898
  C 4.587139 -1.780577 -3.175888
  C 3.508649 -0.793334 -3.620682
  C 3.779911 -0.289692 -5.032695
  H 5.080875 -3.075243 -1.493974
  H 1.470437 0.307292 2.487348
  H 1.584066 -1.449627 2.575496
  H 0.428014 -0.705150 1.498328
  H 2.758337 0.805758 -0.777092
  H 4.125473 0.841917 0.294646
  H 2.744702 1.988228 2.048831
  H 1.407567 2.047865 0.891305
  H 1.643521 -2.485984 0.006018
  H 3.513245 -0.693967 1.153044
  H 4.628035 -2.626413 -3.869655
  H 5.567642 -1.297093 -3.202034
  H 3.482801 0.054349 -2.934263
  H 2.533461 -1.282278 -3.589928
  H 4.738464 0.217959 -5.084697
  H 3.007996 0.408880 -5.342737
  H 3.792751 -1.113901 -5.741258
 28
 26.420649
  C 1.324414 -0.602935 1.804019
  C 2.551135 -0.638824 0.917455
  C 3.177339 0.733611 0.434046
  C 2.589463 1.944939 1.131269
  H 3.066924 2.831084 0.719533
  C 2.481234 -1.629421 -0.169452
  C 3.502172 -1.901009 -0.965197
  C 4.496209 -2.095843 -1.765590
  C 4.627246 -1.632947 -3.179686
  C 3.394352 -0.901551 -3.700316
  C 3.615695 -0.422737 -5.128401
  H 5.355648 -2.656654 -1.406233
  H 1.371014 0.204428 2.524934
  H 1.238738 -1.539367 2.353543
  H 0.417068 -0.490676 1.210514
  H 2.994893 0.819017 -0.638848
  H 4.256147 0.737966 0.575822
  H 2.786007 1.939203 2.198637
  H 1.521307 2.024354 0.964915
  H 1.550401 -2.170877 -0.306692
  H 3.417782 -0.961396 1.522996
  H 4.839913 -2.492112 -3.821526
  H 5.509780 -0.986453 -3.222640
  H 3.184370 -0.045033 -3.054716
  H 2.527321 -1.563826 -3.670463
  H 4.463216 0.257046 -5.183947
  H 2.734689 0.102381 -5.490451
  H 3.804039 -1.260717 -5.795690
 28
 26.920133
  C 1.342044 -0.616550 1.814314
  C 2.625863 -0.643176 1.000171
  C 3.330118 0.735221 0.685757
  C 2.492135 1.948667 1.082479
  H 3.050704 2.849370 0.803673
  C 2.525374 -1.449948 -0.240375
  C 3.582191 -1.805550 -0.969288
  C 4.535717 -2.055919 -1.803301
  C 4.595689 -1.632041 -3.225931
  C 3.343661 -0.883062 -3.719552
  C 3.530927 -0.428926 -5.172599
  H 5.419628 -2.606921 -1.458867
  H 1.372047 0.154930 2.582989
  H 1.196414 -1.576933 2.322878
  H 0.469476 -0.439115 1.171268
  H 3.511011 0.785445 -0.394367
  H 4.299668 0.787465 1.189743
  H 2.321065 1.986418 2.160712
  H 1.528266 1.970020 0.561718
  H 1.547876 -1.887018 -0.478530
  H 3.408713 -1.137839 1.587134
  H 4.760597 -2.536968 -3.845568
  H 5.511570 -1.014381 -3.331100
  H 3.159305 -0.002752 -3.070689
  H 2.458693 -1.546723 -3.655436
  H 4.395018 0.247838 -5.270460
  H 2.636924 0.105998 -5.522877
  H 3.691430 -1.297728 -5.830845
