 29
 0.000000
  C 0.994636 0.134390 0.385443
  C 2.471835 0.139774 0.398361
  C 3.240435 0.612071 1.573856
  C 2.447225 1.097478 2.782561
  H 3.111558 1.414855 3.572443
  C 3.090669 -0.323872 -0.756057
  C 4.466312 -0.411885 -0.975547
  C 5.128296 -0.866494 -2.108710
  C 4.615112 -1.387123 -3.406262
  C 3.122242 -1.501042 -3.690962
  C 2.890707 -2.062805 -5.091087
  O 6.450606 -0.869570 -2.116650
  H 0.549522 0.502665 1.302512
  H 0.629280 -0.879080 0.215794
  H 0.628927 0.748844 -0.438023
  H 3.896738 1.426627 1.247337
  H 3.897004 -0.201803 1.901476
  H 1.810631 0.300077 3.164537
  H 1.810405 1.937405 2.506874
  H 2.431269 -0.640981 -1.545526
  H 5.092819 -0.082425 -0.154842
  H 5.066249 -2.377476 -3.535762
  H 5.066596 -0.761229 -4.184425
  H 2.649499 -0.519633 -3.635982
  H 2.649073 -2.172009 -2.972914
  H 3.327047 -1.416507 -5.849201
  H 1.824749 -2.142116 -5.289439
  H 3.326635 -3.054062 -5.192109
  H 6.839403 -0.536630 -1.286209
 29
 -0.138634
  C 0.958098 -0.027711 0.496900
  C 2.431230 0.038365 0.436582
  C 3.229493 0.675780 1.512632
  C 2.463819 1.249826 2.698062
  H 3.168836 1.677573 3.407892
  C 3.036922 -0.505964 -0.691419
  C 4.413393 -0.575043 -0.908751
  C 5.090642 -1.048371 -2.028408
  C 4.596696 -1.352470 -3.399700
  C 3.115105 -1.580644 -3.677907
  C 2.916387 -1.946696 -5.145530
  O 6.400340 -1.189410 -1.970820
  H 0.547835 0.380047 1.412332
  H 0.627352 -1.060837 0.384519
  H 0.530518 0.510727 -0.350264
  H 3.827525 1.477300 1.063875
  H 3.948851 -0.060509 1.888973
  H 1.897946 0.479867 3.217531
  H 1.785026 2.040858 2.388658
  H 2.376121 -0.921760 -1.431050
  H 5.049939 -0.261832 -0.089309
  H 5.167467 -2.222388 -3.745989
  H 4.942255 -0.519128 -4.027746
  H 2.545662 -0.676705 -3.473804
  H 2.738871 -2.396890 -3.063133
  H 3.262327 -1.147018 -5.795651
  H 1.863237 -2.118849 -5.352933
  H 3.461975 -2.852626 -5.398840
  H 6.802434 -0.964711 -1.110495
 29
 2.959836
  C 0.990257 -0.251616 0.601688
  C 2.450501 -0.079449 0.487082
  C 3.207874 0.805389 1.403999
  C 2.425281 1.473702 2.528098
  H 3.100891 2.087624 3.119993
  C 3.073989 -0.716490 -0.578854
  C 4.432652 -0.629502 -0.891857
  C 5.061149 -1.269884 -1.959615
  C 4.612808 -1.416662 -3.372104
  C 3.120970 -1.547963 -3.671951
  C 2.892298 -1.632017 -5.178688
  O 6.360861 -1.487790 -1.877544
  H 0.567808 0.252847 1.458365
  H 0.739188 -1.312837 0.649480
  H 0.506636 0.125904 -0.299476
  H 3.692207 1.583627 0.806450
  H 4.021039 0.220830 1.848036
  H 1.977696 0.736032 3.196839
  H 1.643270 2.121547 2.139669
  H 2.443326 -1.313325 -1.220693
  H 5.088383 -0.272799 -0.108673
  H 5.158548 -2.260588 -3.803340
  H 4.988477 -0.517838 -3.878024
  H 2.582394 -0.686035 -3.284391
  H 2.727097 -2.451407 -3.208529
  H 3.209510 -0.713696 -5.671916
  H 1.836243 -1.783601 -5.394477
  H 3.448692 -2.462700 -5.611448
  H 6.751942 -1.331191 -0.998936
 29
 26.134635
  C 0.985077 -0.179796 0.762193
  C 2.435810 0.021856 0.600464
  C 3.219459 0.862349 1.534746
  C 2.475036 1.454025 2.723075
  H 3.181772 1.976345 3.362968
  C 3.048455 -0.618271 -0.461429
  C 4.372699 -0.429383 -0.939465
  C 4.731515 -1.271378 -1.979903
  C 4.549442 -1.513189 -3.440689
  C 3.109809 -1.616355 -3.942818
  C 3.075329 -1.760857 -5.460879
  O 6.095816 -1.457645 -1.899485
  H 0.579698 0.325561 1.633728
  H 0.758630 -1.248363 0.828679
  H 0.464341 0.180453 -0.125757
  H 3.668548 1.678417 0.965303
  H 4.047321 0.258801 1.919937
  H 1.997185 0.682320 3.319241
  H 1.726613 2.176151 2.406244
  H 2.440470 -1.338488 -0.993198
  H 5.068406 0.002556 -0.242431
  H 5.108965 -2.416186 -3.696443
  H 5.055101 -0.677121 -3.937840
  H 2.553568 -0.719797 -3.652938
  H 2.621241 -2.482680 -3.492079
  H 3.543488 -0.906894 -5.943399
  H 2.050005 -1.829825 -5.813566
  H 3.601125 -2.662356 -5.775207
  H 6.506810 -1.237522 -1.039766
 29
 63.159776
  C 0.991776 -0.280504 1.061877
  C 2.408911 -0.017271 0.767610
  C 3.200714 0.950191 1.556904
  C 2.519909 1.585303 2.761913
  H 3.219245 2.252706 3.256419
  C 2.974666 -0.683549 -0.305237
  C 4.295993 -0.488978 -0.850230
  C 4.416465 -1.157841 -2.042248
  C 4.460988 -1.528679 -3.488987
  C 3.117779 -1.455044 -4.235097
  C 3.295791 -1.814514 -5.708750
  O 5.894804 -1.381618 -1.980344
  H 0.641336 0.241461 1.944504
  H 0.823066 -1.349621 1.183005
  H 0.379151 0.030600 0.216319
  H 3.528644 1.747917 0.890140
  H 4.108694 0.446115 1.901871
  H 2.217348 0.829296 3.486652
  H 1.659174 2.166750 2.477039
  H 2.360497 -1.444831 -0.759274
  H 5.018310 -0.337480 -0.068119
  H 4.868114 -2.534671 -3.552551
  H 5.176586 -0.853319 -3.952206
  H 2.704965 -0.450237 -4.154017
  H 2.410904 -2.158568 -3.787580
  H 3.949856 -1.108903 -6.208265
  H 2.336637 -1.804686 -6.218235
  H 3.723099 -2.812181 -5.814052
  H 6.314036 -1.331721 -1.106936
 29
 104.992076
  C 1.062930 -0.354333 0.782853
  C 2.511731 -0.090834 0.594613
  C 3.229868 0.891084 1.452023
  C 2.430518 1.533687 2.581123
  H 3.078763 2.207818 3.135250
  C 3.133305 -0.789009 -0.395775
  C 4.583293 -0.514220 -0.779219
  C 4.493884 -1.074475 -1.971389
  C 4.403810 -1.490466 -3.350579
  C 3.015518 -1.336628 -3.991633
  C 3.069892 -1.713518 -5.466874
  O 6.258238 -1.329307 -1.988461
  H 0.658630 0.173847 1.638202
  H 0.887460 -1.422750 0.904361
  H 0.506753 -0.043291 -0.100284
  H 3.604491 1.696465 0.808832
  H 4.102499 0.404152 1.896209
  H 2.057849 0.785668 3.279168
  H 1.597013 2.118392 2.202596
  H 2.553995 -1.556774 -0.886739
  H 4.999249 -0.341322 0.187808
  H 4.752206 -2.523716 -3.427280
  H 5.129640 -0.871510 -3.889475
  H 2.680267 -0.303144 -3.892774
  H 2.299773 -1.986340 -3.486079
  H 3.744809 -1.059964 -6.013278
  H 2.083653 -1.626274 -5.912275
  H 3.407668 -2.737726 -5.594029
  H 6.789400 -1.235885 -1.190020
 29
 120.757286
  C 1.098816 -0.460010 0.696603
  C 2.543402 -0.140543 0.497059
  C 3.218952 0.908536 1.317383
  C 2.386624 1.564202 2.415866
  H 3.005258 2.283759 2.947394
  C 3.192386 -0.873963 -0.438073
  C 4.658261 -0.535202 -0.768421
  C 4.503779 -1.055327 -1.925465
  C 4.365071 -1.440217 -3.264589
  C 2.964898 -1.205170 -3.871958
  C 2.969932 -1.551817 -5.354407
  O 6.608715 -1.359437 -1.874272
  H 0.676006 0.089136 1.528278
  H 0.961655 -1.525626 0.869318
  H 0.534752 -0.205609 -0.199864
  H 3.568194 1.699769 0.645517
  H 4.105526 0.471975 1.787850
  H 2.037883 0.831964 3.140428
  H 1.534506 2.101699 2.008486
  H 2.664073 -1.709232 -0.871005
  H 5.148436 -0.256279 0.135780
  H 4.656567 -2.490138 -3.377387
  H 5.110285 -0.841782 -3.807370
  H 2.681564 -0.160474 -3.743077
  H 2.233692 -1.831548 -3.361754
  H 3.662258 -0.919045 -5.903514
  H 1.977499 -1.406461 -5.773002
  H 3.254729 -2.588737 -5.512654
  H 7.205037 -1.287001 -1.121758
 29
 123.587211
  C 1.202621 -0.601647 0.481303
  C 2.639835 -0.240708 0.349422
  C 3.229004 0.862756 1.156787
  C 2.317495 1.528711 2.182361
  H 2.880377 2.294066 2.711074
  C 3.380540 -1.004831 -0.503033
  C 4.882439 -0.553699 -0.751555
  C 4.559807 -1.062526 -1.857206
  C 4.284620 -1.415800 -3.197776
  C 2.857422 -1.091909 -3.678464
  C 2.721054 -1.409932 -5.161052
  O 6.932464 -1.300550 -1.394648
  H 0.716837 -0.042319 1.270494
  H 1.081320 -1.664274 0.680226
  H 0.686930 -0.391809 -0.455232
  H 3.585883 1.636272 0.467606
  H 4.104438 0.481584 1.690436
  H 1.961157 0.814942 2.920703
  H 1.467161 2.013586 1.711172
  H 2.886677 -1.882925 -0.902627
  H 5.353587 -0.122918 0.098402
  H 4.494996 -2.479896 -3.350833
  H 5.017649 -0.856636 -3.793780
  H 2.649034 -0.034789 -3.512693
  H 2.132384 -1.684104 -3.120834
  H 3.403302 -0.808326 -5.756295
  H 1.708413 -1.198769 -5.494484
  H 2.929591 -2.458633 -5.357376
  H 7.514363 -1.226299 -0.633672
 29
 124.613487
  C 1.215461 -0.618178 0.391901
  C 2.664368 -0.284954 0.270863
  C 3.265823 0.789717 1.106973
  C 2.358130 1.458047 2.135000
  H 2.932600 2.201859 2.681946
  C 3.376160 -1.037796 -0.614003
  C 5.033946 -0.464911 -0.792302
  C 4.570319 -1.096116 -1.787953
  C 4.257378 -1.436180 -3.145775
  C 2.836321 -1.076702 -3.602431
  C 2.666822 -1.395473 -5.081252
  O 6.844691 -1.118601 -1.244209
  H 0.739753 -0.058535 1.187325
  H 1.071083 -1.680717 0.573779
  H 0.705284 -0.383649 -0.541875
  H 3.642746 1.567921 0.433508
  H 4.130641 0.384814 1.638345
  H 1.980689 0.739602 2.858876
  H 1.522672 1.969345 1.665849
  H 2.854987 -1.903041 -1.017150
  H 5.523236 -0.016738 0.037910
  H 4.431614 -2.506703 -3.300190
  H 4.996466 -0.907365 -3.758451
  H 2.659511 -0.013974 -3.437941
  H 2.100543 -1.646483 -3.035800
  H 3.354730 -0.814375 -5.689901
  H 1.654805 -1.156829 -5.398287
  H 2.843248 -2.450327 -5.276980
  H 7.429244 -0.956940 -0.495899
 29
 109.876794
  C 1.156628 -0.611067 0.288933
  C 2.621139 -0.326264 0.195523
  C 3.245661 0.723258 1.050235
  C 2.344387 1.429470 2.058205
  H 2.933929 2.153066 2.615794
  C 3.313788 -1.119388 -0.710460
  C 5.200493 -0.400503 -0.778497
  C 4.521187 -1.126615 -1.648508
  C 4.193123 -1.467157 -3.031194
  C 2.797576 -1.036613 -3.502963
  C 2.623997 -1.370148 -4.979987
  O 6.683695 -1.017285 -1.184461
  H 0.673954 -0.033103 1.068257
  H 0.973520 -1.672874 0.455077
  H 0.678766 -0.365892 -0.661125
  H 3.660271 1.486382 0.380308
  H 4.091139 0.293548 1.588923
  H 1.931799 0.726826 2.778230
  H 1.531420 1.960854 1.573493
  H 2.747037 -1.949228 -1.135490
  H 5.770850 0.046839 0.089270
  H 4.301834 -2.549314 -3.166421
  H 4.962311 -0.998831 -3.652581
  H 2.679847 0.039644 -3.361042
  H 2.020721 -1.547656 -2.938898
  H 3.345387 -0.832100 -5.590590
  H 1.630063 -1.077314 -5.310843
  H 2.739911 -2.435689 -5.159766
  H 7.340329 -0.802436 -0.502494
 29
 70.597452
  C 1.035002 -0.606631 0.473592
  C 2.481391 -0.390974 0.259091
  C 3.206266 0.644607 1.018010
  C 2.416639 1.434225 2.068283
  H 3.078534 2.172346 2.528580
  C 3.051818 -1.176792 -0.758648
  C 5.195449 -0.280749 -0.820373
  C 4.261501 -1.083722 -1.474337
  C 4.159500 -1.472873 -2.903132
  C 2.849082 -1.022123 -3.564354
  C 2.871847 -1.363991 -5.060799
  O 6.406269 -0.996192 -1.425188
  H 0.651526 -0.038254 1.308947
  H 0.828714 -1.663611 0.624761
  H 0.474603 -0.315654 -0.422174
  H 3.601331 1.363965 0.286780
  H 4.093990 0.197984 1.483884
  H 2.054633 0.783778 2.867350
  H 1.572573 1.970312 1.627065
  H 2.427728 -1.981321 -1.146253
  H 6.130825 0.297439 -0.073280
  H 4.270055 -2.554808 -2.999938
  H 5.009501 -1.042245 -3.434110
  H 2.738604 0.063333 -3.449775
  H 1.979003 -1.505763 -3.108992
  H 3.709828 -0.875420 -5.563681
  H 1.946819 -1.027097 -5.535746
  H 2.957577 -2.444122 -5.216023
  H 7.244023 -0.781937 -0.972057
 29
 36.333794
  C 1.012725 -0.611846 0.604059
  C 2.429672 -0.342545 0.270187
  C 3.190892 0.724293 0.950546
  C 2.487800 1.449625 2.090907
  H 3.186754 2.138974 2.556654
  C 2.954277 -1.151399 -0.727522
  C 5.235168 -0.376693 -0.892061
  C 4.168055 -1.056936 -1.457118
  C 4.145031 -1.494255 -2.879199
  C 2.917060 -0.977923 -3.637642
  C 2.993691 -1.386603 -5.102496
  O 6.362303 -0.828119 -1.594956
  H 0.638387 0.025762 1.392492
  H 0.881636 -1.656540 0.887329
  H 0.392744 -0.463089 -0.277763
  H 3.534699 1.447037 0.209339
  H 4.082358 0.249861 1.370282
  H 2.153698 0.753458 2.855823
  H 1.637297 2.026331 1.740674
  H 2.292545 -1.929593 -1.082892
  H 5.802017 -0.264832 0.013229
  H 4.164087 -2.585910 -2.926943
  H 5.047439 -1.125040 -3.368128
  H 2.877232 0.110706 -3.577581
  H 2.003924 -1.376058 -3.198925
  H 3.839046 -0.916486 -5.597038
  H 2.092275 -1.078191 -5.625674
  H 3.093723 -2.464304 -5.198326
  H 7.215371 -0.574917 -1.204540
 29
 9.813397
  C 1.006946 -0.556899 0.663331
  C 2.421914 -0.320284 0.302829
  C 3.232649 0.686385 1.032955
  C 2.541497 1.465596 2.148165
  H 3.251945 2.162905 2.587730
  C 2.891219 -1.047187 -0.779876
  C 5.295651 -0.498065 -0.945205
  C 4.121590 -1.019765 -1.470227
  C 4.133199 -1.479099 -2.900726
  C 2.906853 -1.048957 -3.715451
  C 3.061144 -1.478953 -5.169863
  O 6.404185 -0.689662 -1.645416
  H 0.695671 -0.021295 1.548327
  H 0.827306 -1.621986 0.804301
  H 0.364603 -0.255178 -0.165516
  H 3.605783 1.406397 0.294440
  H 4.115400 0.193825 1.447873
  H 2.194973 0.807074 2.941963
  H 1.701168 2.043338 1.771606
  H 2.173996 -1.737622 -1.201018
  H 5.502583 -0.387576 0.109814
  H 4.217890 -2.569626 -2.930002
  H 5.028284 -1.085684 -3.385790
  H 2.810417 0.037821 -3.671196
  H 1.994165 -1.488977 -3.316197
  H 3.950942 -1.039090 -5.613778
  H 2.201142 -1.157447 -5.752274
  H 3.138374 -2.560808 -5.248408
  H 7.229691 -0.430314 -1.199150
 29
 5.831841
  C 0.986257 -0.365338 0.599199
  C 2.428281 -0.229959 0.297363
  C 3.295162 0.630178 1.140184
  C 2.637547 1.349473 2.313109
  H 3.392466 1.923083 2.845381
  C 2.864401 -0.900284 -0.832651
  C 5.315384 -0.520674 -0.957818
  C 4.103816 -0.926684 -1.505246
  C 4.157766 -1.411648 -2.927017
  C 2.884622 -1.238228 -3.754741
  C 3.132232 -1.657078 -5.200245
  O 6.407590 -0.625355 -1.673545
  H 0.687499 0.144032 1.505942
  H 0.714482 -1.418732 0.672768
  H 0.401303 0.033989 -0.230771
  H 3.761363 1.380401 0.492997
  H 4.103386 0.011136 1.539773
  H 2.200653 0.648006 3.019215
  H 1.870568 2.043103 1.978806
  H 2.089198 -1.462927 -1.334104
  H 5.436698 -0.272974 0.086034
  H 4.437825 -2.470091 -2.930359
  H 4.972171 -0.882693 -3.426858
  H 2.574626 -0.191908 -3.734157
  H 2.070352 -1.844995 -3.359141
  H 3.913690 -1.050882 -5.652951
  H 2.227190 -1.536478 -5.790793
  H 3.434822 -2.700407 -5.254488
  H 7.226942 -0.352327 -1.221692
 29
 5.330776
  C 0.954725 -0.124003 0.512114
  C 2.412360 -0.112834 0.260884
  C 3.328567 0.566661 1.209616
  C 2.704239 1.234394 2.431352
  H 3.494470 1.671554 3.036906
  C 2.823015 -0.723131 -0.912737
  C 5.302362 -0.501024 -0.970115
  C 4.070764 -0.777211 -1.558761
  C 4.163312 -1.245170 -2.984816
  C 2.859799 -1.445929 -3.747873
  C 3.146136 -1.836434 -5.195565
  O 6.386812 -0.667505 -1.687430
  H 0.674662 0.331975 1.452465
  H 0.575161 -1.145789 0.479251
  H 0.442212 0.405176 -0.293133
  H 3.889546 1.329059 0.659153
  H 4.054114 -0.168185 1.570508
  H 2.178326 0.515041 3.054425
  H 2.019660 2.030328 2.151345
  H 2.019728 -1.173946 -1.476981
  H 5.431695 -0.222668 0.064553
  H 4.736963 -2.177258 -3.008929
  H 4.775665 -0.513731 -3.521855
  H 2.273053 -0.525430 -3.745215
  H 2.260951 -2.238410 -3.296020
  H 3.718963 -1.061549 -5.700181
  H 2.217083 -1.978675 -5.742221
  H 3.710992 -2.764697 -5.242690
  H 7.222048 -0.471331 -1.225577
