 32
 0.000000
  C 0.968767 0.139351 0.399601
  C 2.446447 0.138115 0.395346
  C 3.234460 0.607562 1.562646
  C 2.459748 1.097943 2.783194
  C 3.411427 1.542753 3.889227
  C 3.060064 -0.326115 -0.760183
  C 4.439130 -0.411993 -0.974599
  C 5.117520 -0.862202 -2.097077
  C 4.624486 -1.385397 -3.401999
  C 3.133757 -1.503599 -3.698069
  C 2.909725 -2.065379 -5.099248
  O 6.442740 -0.856648 -2.083073
  H 0.534549 0.509729 1.321297
  H 0.597045 -0.873003 0.234389
  H 0.596429 0.755461 -0.420228
  H 3.890246 1.419373 1.227748
  H 3.890735 -0.209842 1.882633
  H 1.822010 0.301341 3.171549
  H 1.821578 1.941446 2.512340
  H 4.047570 0.720875 4.211598
  H 2.847570 1.889462 4.752263
  H 4.047118 2.359406 3.552992
  H 2.401323 -0.643773 -1.550558
  H 5.055886 -0.079861 -0.147388
  H 5.080522 -2.374227 -3.527366
  H 5.081103 -0.757501 -4.175802
  H 2.658264 -0.523206 -3.644748
  H 2.657666 -2.175228 -2.982296
  H 3.348295 -1.417939 -5.855470
  H 1.844404 -2.146354 -5.302183
  H 3.347712 -3.056200 -5.198554
  H 6.812423 -0.521100 -1.244862
 32
 14.399600
  C 0.946893 0.154072 0.435888
  C 2.421475 0.151435 0.428487
  C 3.212926 0.619020 1.591325
  C 2.444359 1.110740 2.814987
  C 3.405336 1.552728 3.914369
  C 3.035178 -0.314993 -0.732394
  C 4.404398 -0.397405 -0.938275
  C 5.130586 -0.891840 -2.171190
  C 4.642080 -1.406339 -3.454286
  C 3.148483 -1.518146 -3.734177
  C 2.913834 -2.079459 -5.134087
  O 6.588672 -0.879939 -2.141879
  H 0.517358 0.525072 1.358972
  H 0.574288 -0.857257 0.267928
  H 0.573809 0.767565 -0.385254
  H 3.869752 1.428919 1.254406
  H 3.870061 -0.198538 1.908583
  H 1.807685 0.315526 3.206974
  H 1.807480 1.955912 2.547671
  H 4.041139 0.729090 4.231822
  H 2.849694 1.901150 4.781509
  H 4.040932 2.367099 3.573450
  H 2.376505 -0.633131 -1.523932
  H 5.034162 -0.070270 -0.123652
  H 5.098712 -2.395753 -3.582658
  H 5.099245 -0.780128 -4.230711
  H 2.677948 -0.536112 -3.675852
  H 2.677446 -2.187543 -3.013600
  H 3.349417 -1.433540 -5.892798
  H 1.847723 -2.158037 -5.330866
  H 3.348946 -3.070837 -5.236222
  H 6.939290 -0.543653 -1.301910
 32
 44.560708
  C 0.944568 0.162288 0.455182
  C 2.413370 0.161470 0.452720
  C 3.200754 0.626647 1.610369
  C 2.433696 1.117852 2.832991
  C 3.401153 1.557445 3.927186
  C 3.029825 -0.302941 -0.703394
  C 4.377106 -0.374814 -0.882609
  C 5.104191 -0.914074 -2.227278
  C 4.639362 -1.423386 -3.496887
  C 3.146152 -1.531968 -3.767850
  C 2.912195 -2.092745 -5.166222
  O 6.713141 -0.878670 -2.139764
  H 0.523202 0.533795 1.379833
  H 0.571152 -0.847840 0.289370
  H 0.570825 0.776785 -0.363380
  H 3.859775 1.433929 1.275261
  H 3.859931 -0.188023 1.926915
  H 1.799229 0.323233 3.227521
  H 1.799301 1.964558 2.568099
  H 4.036335 0.732833 4.240408
  H 2.853144 1.907001 4.797179
  H 4.036329 2.369562 3.582774
  H 2.376695 -0.622235 -1.498048
  H 5.052450 -0.064312 -0.109312
  H 5.106699 -2.405925 -3.635428
  H 5.106934 -0.809205 -4.276083
  H 2.678141 -0.549920 -3.709698
  H 2.677875 -2.201622 -3.047240
  H 3.348216 -1.447662 -5.923966
  H 1.847724 -2.172107 -5.364626
  H 3.347980 -3.082763 -5.268250
  H 6.977796 -0.536079 -1.284639
 32
 79.052550
  C 0.943749 0.154277 0.438385
  C 2.412970 0.161503 0.455180
  C 3.192509 0.630230 1.619553
  C 2.415817 1.122341 2.843324
  C 3.378586 1.564699 3.941797
  C 3.043971 -0.299546 -0.691770
  C 4.390824 -0.362478 -0.848683
  C 5.090595 -0.936215 -2.280184
  C 4.651500 -1.433027 -3.520544
  C 3.136030 -1.529214 -3.762713
  C 2.865579 -2.088505 -5.158926
  O 6.885859 -0.889951 -2.165322
  H 0.504702 0.524190 1.358196
  H 0.578722 -0.861335 0.257574
  H 0.578051 0.761473 -0.395200
  H 3.855105 1.440008 1.286444
  H 3.855716 -0.184016 1.939812
  H 1.780876 0.325570 3.236426
  H 1.780344 1.969017 2.575151
  H 4.015563 0.739651 4.258474
  H 2.825557 1.914916 4.812669
  H 4.014908 2.379541 3.598554
  H 2.404177 -0.620895 -1.491261
  H 5.118373 -0.068538 -0.116404
  H 5.124331 -2.426719 -3.661122
  H 5.125079 -0.811974 -4.308346
  H 2.681482 -0.540953 -3.688242
  H 2.680510 -2.192125 -3.026780
  H 3.290766 -1.446091 -5.928253
  H 1.793002 -2.157721 -5.333397
  H 3.289714 -3.084795 -5.271591
  H 7.082087 -0.538012 -1.286524
 32
 112.745893
  C 0.929452 0.201573 0.462702
  C 2.393789 0.191739 0.480558
  C 3.173159 0.637742 1.647383
  C 2.400387 1.125209 2.867476
  C 3.364569 1.543291 3.973713
  C 3.038389 -0.278493 -0.697407
  C 4.383379 -0.343795 -0.851080
  C 5.056601 -0.937473 -2.322656
  C 4.635496 -1.446420 -3.559137
  C 3.131302 -1.560746 -3.790846
  C 2.866977 -2.127914 -5.177790
  O 7.080915 -0.868272 -2.192204
  H 0.496448 0.567226 1.384632
  H 0.554365 -0.802641 0.271657
  H 0.572764 0.816798 -0.361880
  H 3.845124 1.439001 1.325357
  H 3.823986 -0.184432 1.960273
  H 1.754647 0.333830 3.248891
  H 1.778485 1.981409 2.605109
  H 3.987446 0.708933 4.283850
  H 2.815520 1.890949 4.842606
  H 4.011657 2.350624 3.642201
  H 2.392389 -0.597802 -1.506671
  H 5.137052 -0.059333 -0.151222
  H 5.110286 -2.424026 -3.696417
  H 5.088936 -0.832041 -4.344626
  H 2.668608 -0.577711 -3.717424
  H 2.691022 -2.224204 -3.047886
  H 3.279044 -1.484874 -5.949896
  H 1.798726 -2.211649 -5.346151
  H 3.302472 -3.116815 -5.286989
  H 7.241247 -0.497601 -1.319848
 32
 109.495820
  C 0.815106 0.390550 0.535044
  C 2.281777 0.285047 0.426676
  C 3.174223 0.616140 1.561475
  C 2.518641 1.087828 2.851084
  C 3.572769 1.368283 3.919996
  C 2.778313 -0.165067 -0.767928
  C 4.164088 -0.297885 -1.058034
  C 4.596420 -0.801157 -2.173577
  C 4.524351 -1.386903 -3.428649
  C 3.047909 -1.660761 -3.875882
  C 3.065272 -2.310051 -5.257077
  O 7.285166 -0.721067 -1.799068
  H 0.492745 0.745202 1.508875
  H 0.351531 -0.578454 0.341955
  H 0.428632 1.064579 -0.230884
  H 3.880239 1.388271 1.232827
  H 3.788925 -0.262317 1.787999
  H 1.839607 0.319658 3.224291
  H 1.945152 1.995623 2.670279
  H 4.147153 0.472214 4.147543
  H 3.099697 1.704182 4.841149
  H 4.263418 2.145321 3.596121
  H 2.074007 -0.460985 -1.526670
  H 4.943963 0.024828 -0.385199
  H 5.089086 -2.339574 -3.419234
  H 5.025534 -0.739093 -4.174319
  H 2.506751 -0.715316 -3.914432
  H 2.574335 -2.327195 -3.152811
  H 3.516135 -1.655614 -6.001279
  H 2.038732 -2.504040 -5.566355
  H 3.602920 -3.255445 -5.252281
  H 7.368639 -0.227720 -0.988647
 32
 109.340388
  C 0.709792 0.426101 0.668014
  C 2.172675 0.286249 0.476369
  C 3.140931 0.611093 1.555976
  C 2.572547 1.110402 2.880450
  C 3.691871 1.385592 3.878776
  C 2.589454 -0.179402 -0.734751
  C 3.971921 -0.355546 -1.099131
  C 4.415327 -0.836940 -2.195886
  C 4.539591 -1.400292 -3.454246
  C 3.090176 -1.707114 -3.992048
  C 3.210847 -2.325583 -5.371342
  O 7.368055 -0.733255 -1.693313
  H 0.454351 0.796725 1.653511
  H 0.218095 -0.535541 0.520116
  H 0.296778 1.105669 -0.077440
  H 3.834908 1.369549 1.177554
  H 3.746546 -0.279193 1.758258
  H 1.904164 0.364819 3.312037
  H 2.009525 2.033800 2.729309
  H 4.261980 0.482362 4.085029
  H 3.280799 1.743009 4.819341
  H 4.374762 2.143797 3.502900
  H 1.848919 -0.454372 -1.479476
  H 4.724537 -0.028803 -0.380696
  H 5.113693 -2.328263 -3.405543
  H 5.051635 -0.722820 -4.140250
  H 2.532799 -0.767183 -4.038426
  H 2.599583 -2.394387 -3.298362
  H 3.686938 -1.646143 -6.074287
  H 2.208015 -2.540291 -5.739690
  H 3.773437 -3.257140 -5.346867
  H 7.519306 -0.249217 -0.875805
 32
 106.933229
  C 0.605483 0.338796 0.882852
  C 2.051634 0.244531 0.575440
  C 3.092966 0.628695 1.566898
  C 2.620413 1.126868 2.930566
  C 3.812022 1.465840 3.823061
  C 2.394280 -0.219238 -0.663889
  C 3.743069 -0.371454 -1.132074
  C 4.214460 -0.821761 -2.236076
  C 4.555360 -1.351954 -3.469187
  C 3.157622 -1.744046 -4.102549
  C 3.418432 -2.348689 -5.477869
  O 7.274260 -0.668219 -1.764257
  H 0.411758 0.720903 1.877826
  H 0.139267 -0.642436 0.784203
  H 0.110391 0.982141 0.154067
  H 3.720934 1.411297 1.124062
  H 3.749307 -0.234558 1.733644
  H 2.021661 0.359655 3.425633
  H 2.005847 2.022496 2.813806
  H 4.437536 0.590418 3.990128
  H 3.470793 1.822728 4.792399
  H 4.425409 2.246275 3.376973
  H 1.618154 -0.502931 -1.359246
  H 4.528662 -0.054558 -0.438617
  H 5.175082 -2.253617 -3.383403
  H 5.058082 -0.629893 -4.123734
  H 2.539214 -0.848625 -4.195422
  H 2.660116 -2.469734 -3.456207
  H 3.904143 -1.636050 -6.144184
  H 2.461146 -2.627186 -5.917328
  H 4.038487 -3.242869 -5.410684
  H 7.695390 -0.234086 -1.019796
