 17
 0.000000
  H 1.433773 -0.076750 0.037390
  C 2.506904 -0.083591 0.023958
  C 3.219818 -0.594402 -0.978851
  C 4.657069 -0.605527 -1.000689
  C 5.378849 -1.120464 -2.011596
  C 6.816227 -1.130780 -2.031843
  C 7.534310 -1.641876 -3.035220
  C 9.023322 -1.661847 -3.074417
  H 3.004229 0.351483 0.878083
  H 2.708133 -1.027663 -1.829403
  H 5.160897 -0.170733 -0.147121
  H 4.874698 -1.555056 -2.864772
  H 7.322378 -0.696456 -1.179195
  H 7.035428 -2.077864 -3.891123
  H 9.456216 -1.208828 -2.185069
  H 9.382429 -1.116787 -3.948232
  H 9.382429 -2.689138 -3.147309
 17
 1.680991
  H 1.369498 -0.192579 -0.190016
  C 2.434698 -0.123751 -0.054887
  C 3.280266 -0.578651 -0.947924
  C 4.728034 -0.533524 -0.859326
  C 5.439618 -1.055006 -1.883078
  C 6.863356 -1.106592 -1.984355
  C 7.517518 -1.635429 -3.022562
  C 8.999204 -1.699786 -3.148889
  H 2.774451 0.338910 0.853390
  H 2.947245 -1.053270 -1.879672
  H 5.197672 -0.090231 0.010929
  H 4.831550 -1.471540 -2.700808
  H 7.419372 -0.685409 -1.157512
  H 6.957528 -2.056024 -3.848251
  H 9.485092 -1.258300 -2.282187
  H 9.325757 -1.169915 -4.044057
  H 9.325751 -2.735396 -3.246625
 17
 6.525140
  H 1.350870 -0.280187 -0.362014
  C 2.390931 -0.159658 -0.125356
  C 3.351254 -0.575242 -0.941220
  C 4.775357 -0.487567 -0.769110
  C 5.475650 -1.009444 -1.793640
  C 6.888555 -1.089429 -1.950658
  C 7.487008 -1.629928 -3.011756
  C 8.961764 -1.723946 -3.196345
  H 2.620487 0.319546 0.815360
  H 3.179528 -1.068059 -1.908706
  H 5.212931 -0.042487 0.104660
  H 4.796738 -1.398103 -2.556655
  H 7.485203 -0.679453 -1.145811
  H 6.884665 -2.037401 -3.811685
  H 9.491941 -1.293180 -2.350676
  H 9.262661 -1.200754 -4.104801
  H 9.262664 -2.766421 -3.307297
 17
 14.761178
  H 1.351982 -0.351362 -0.501700
  C 2.366069 -0.192055 -0.188977
  C 3.398184 -0.570496 -0.931923
  C 4.809672 -0.450230 -0.695816
  C 5.506870 -0.972728 -1.721576
  C 6.908884 -1.074488 -1.921361
  C 7.464787 -1.625655 -3.003382
  C 8.929209 -1.743688 -3.235095
  H 2.506760 0.292856 0.763012
  H 3.357027 -1.074655 -1.921678
  H 5.221768 -0.002471 0.183212
  H 4.749404 -1.344237 -2.450913
  H 7.535469 -0.675499 -1.138080
  H 6.828605 -2.023646 -3.784698
  H 9.494417 -1.321001 -2.405294
  H 9.209579 -1.224187 -4.154810
  H 9.209594 -2.793135 -3.355650
 17
 26.096420
  H 1.354586 -0.411577 -0.619927
  C 2.340960 -0.221410 -0.246583
  C 3.426031 -0.567599 -0.926216
  C 4.828501 -0.422059 -0.640513
  C 5.525510 -0.943700 -1.664590
  C 6.931182 -1.064370 -1.901486
  C 7.452175 -1.624590 -3.001275
  C 8.905308 -1.762546 -3.272097
  H 2.406596 0.268413 0.715002
  H 3.496862 -1.074100 -1.920594
  H 5.225172 0.035190 0.257145
  H 4.702395 -1.295388 -2.355023
  H 7.588823 -0.672832 -1.132812
  H 6.790021 -2.014085 -3.765905
  H 9.497880 -1.347924 -2.458148
  H 9.167757 -1.246892 -4.198988
  H 9.167759 -2.815472 -3.399973
 17
 38.980062
  H 1.347797 -0.446552 -0.688557
  C 2.332276 -0.235837 -0.274836
  C 3.441406 -0.562753 -0.916666
  C 4.842601 -0.408735 -0.614377
  C 5.543818 -0.931067 -1.639825
  C 6.934554 -1.060127 -1.893213
  C 7.430870 -1.621726 -2.995687
  C 8.890716 -1.772860 -3.292343
  H 2.353963 0.253760 0.686238
  H 3.602856 -1.082916 -1.937913
  H 5.224027 0.043488 0.273401
  H 4.664911 -1.269079 -2.303417
  H 7.609521 -0.673334 -1.133809
  H 6.755880 -2.003393 -3.744966
  H 9.498387 -1.365695 -2.493021
  H 9.142730 -1.261924 -4.219341
  H 9.142717 -2.823165 -3.424098
 17
 52.114829
  H 1.364627 -0.451521 -0.698360
  C 2.321346 -0.240762 -0.284409
  C 3.437320 -0.563459 -0.917988
  C 4.839823 -0.408993 -0.614893
  C 5.546507 -0.928556 -1.634897
  C 6.944110 -1.061261 -1.895435
  C 7.436119 -1.625110 -3.002315
  C 8.880829 -1.777740 -3.301925
  H 2.326872 0.247009 0.672930
  H 3.652928 -1.096265 -1.964128
  H 5.218762 0.047454 0.281162
  H 4.601435 -1.262680 -2.290882
  H 7.619576 -0.679225 -1.145344
  H 6.764187 -2.002346 -3.742894
  H 9.493066 -1.370202 -2.501844
  H 9.128894 -1.267467 -4.229078
  H 9.128867 -2.827738 -3.434284
 17
 64.397784
  H 1.347094 -0.453644 -0.702986
  C 2.316907 -0.239941 -0.282034
  C 3.430894 -0.561669 -0.914005
  C 4.835002 -0.413113 -0.623152
  C 5.550267 -0.929410 -1.636640
  C 6.944317 -1.062655 -1.898107
  C 7.434127 -1.626874 -3.005698
  C 8.884987 -1.780670 -3.307694
  H 2.319693 0.254234 0.686900
  H 3.677553 -1.115330 -2.001693
  H 5.212950 0.044805 0.275735
  H 4.546561 -1.268625 -2.302844
  H 7.623923 -0.680477 -1.147629
  H 6.753727 -2.007727 -3.753356
  H 9.502017 -1.370704 -2.502917
  H 9.134398 -1.266411 -4.242288
  H 9.134450 -2.839040 -3.441210
 17
 74.438781
  H 1.334730 -0.442135 -0.681558
  C 2.313522 -0.233043 -0.267103
  C 3.420444 -0.559781 -0.909394
  C 4.828098 -0.422158 -0.641209
  C 5.551338 -0.935017 -1.647724
  C 6.947088 -1.066240 -1.904942
  C 7.440883 -1.630299 -3.012272
  C 8.884715 -1.781188 -3.308847
  H 2.323495 0.255404 0.688780
  H 3.681573 -1.136110 -2.042705
  H 5.204776 0.032549 0.251342
  H 4.495362 -1.281651 -2.328862
  H 7.628877 -0.681909 -1.150173
  H 6.767200 -2.010154 -3.757838
  H 9.495946 -1.371880 -2.505529
  H 9.135369 -1.267033 -4.241282
  H 9.135658 -2.837848 -3.441212
 17
 85.049888
  H 1.330241 -0.418861 -0.639726
  C 2.310388 -0.222338 -0.241983
  C 3.401942 -0.557381 -0.901927
  C 4.813633 -0.436461 -0.670224
  C 5.551081 -0.943920 -1.665283
  C 6.944024 -1.071331 -1.914036
  C 7.446054 -1.633219 -3.017239
  C 8.901125 -1.779850 -3.306569
  H 2.336406 0.273582 0.723317
  H 3.656907 -1.170282 -2.110429
  H 5.194878 0.020588 0.226850
  H 4.426253 -1.311316 -2.388292
  H 7.620440 -0.686099 -1.157600
  H 6.773602 -2.017543 -3.771229
  H 9.506484 -1.369003 -2.500714
  H 9.155495 -1.266916 -4.234205
  H 9.156295 -2.831569 -3.437084
 17
 95.143558
  H 1.325150 -0.389396 -0.579596
  C 2.311242 -0.201950 -0.206343
  C 3.382595 -0.549481 -0.889010
  C 4.797451 -0.454931 -0.705374
  C 5.553889 -0.953867 -1.684636
  C 6.943787 -1.075377 -1.922735
  C 7.455976 -1.635012 -3.021532
  C 8.918073 -1.776248 -3.299619
  H 2.359455 0.293202 0.761904
  H 3.611917 -1.215899 -2.199317
  H 5.182692 0.002098 0.192190
  H 4.347194 -1.355594 -2.473817
  H 7.616460 -0.687176 -1.160579
  H 6.784737 -2.025198 -3.787320
  H 9.513198 -1.365424 -2.493428
  H 9.177202 -1.264819 -4.221111
  H 9.177609 -2.822003 -3.427791
 17
 103.759566
  H 1.310084 -0.360193 -0.519003
  C 2.312460 -0.179303 -0.164594
  C 3.362738 -0.538411 -0.869235
  C 4.779995 -0.473623 -0.741942
  C 5.559959 -0.961832 -1.700458
  C 6.953452 -1.078860 -1.930313
  C 7.474067 -1.637915 -3.027917
  C 8.929166 -1.774409 -3.295734
  H 2.378957 0.311950 0.799678
  H 3.550750 -1.265686 -2.297135
  H 5.164988 -0.016948 0.154881
  H 4.260255 -1.405391 -2.571333
  H 7.625541 -0.688942 -1.164615
  H 6.813470 -2.027097 -3.792100
  H 9.522019 -1.358769 -2.479597
  H 9.192669 -1.259124 -4.220923
  H 9.192616 -2.825762 -3.423036
 17
 111.148548
  H 1.306868 -0.330301 -0.452974
  C 2.319326 -0.155406 -0.120762
  C 3.346710 -0.526162 -0.848088
  C 4.761080 -0.493862 -0.782764
  C 5.564411 -0.969989 -1.717404
  C 6.958522 -1.081636 -1.937179
  C 7.487434 -1.639294 -3.031453
  C 8.943787 -1.772186 -3.290052
  H 2.403828 0.332512 0.843114
  H 3.472002 -1.323566 -2.411702
  H 5.144912 -0.036933 0.114082
  H 4.164795 -1.465135 -2.689329
  H 7.628067 -0.690905 -1.169501
  H 6.834278 -2.029005 -3.797229
  H 9.529241 -1.356076 -2.472280
  H 9.211831 -1.255687 -4.214491
  H 9.210842 -2.824107 -3.415772
 17
 116.346971
  H 1.309380 -0.295822 -0.393507
  C 2.327315 -0.135924 -0.078349
  C 3.332131 -0.517536 -0.827117
  C 4.741732 -0.514808 -0.821824
  C 5.566312 -0.980032 -1.735211
  C 6.960264 -1.086495 -1.944425
  C 7.496976 -1.642001 -3.035244
  C 8.958785 -1.769878 -3.286767
  H 2.429248 0.356057 0.885746
  H 3.380569 -1.387600 -2.535328
  H 5.124927 -0.056817 0.077416
  H 4.063099 -1.531904 -2.818659
  H 7.625550 -0.695186 -1.176117
  H 6.847919 -2.034364 -3.805532
  H 9.535207 -1.354336 -2.470943
  H 9.230453 -1.252144 -4.209987
  H 9.230596 -2.821333 -3.411003
