 6
 0.000000
  H 1.437718 -0.077322 0.036267
  C 2.514235 -0.084410 0.022352
  C 3.207160 -0.592891 -0.975881
  H 4.283430 -0.600088 -0.990011
  H 3.005706 0.351454 0.878024
  H 2.709477 -1.027274 -1.828647
 6
 7.620322
  H 1.456561 0.135096 0.004122
  C 2.495497 -0.136203 0.026941
  C 3.181293 -0.505679 -1.039075
  H 4.264048 -0.530799 -1.007643
  H 3.027056 0.176104 0.908897
  H 2.733523 -1.169063 -1.751165
 6
 26.856448
  H 1.501954 0.179555 -0.142837
  C 2.536354 -0.080615 -0.042612
  C 3.224390 -0.402553 -1.145398
  H 4.305103 -0.465016 -1.091050
  H 2.982246 0.041710 0.915569
  H 2.683157 -1.204008 -1.563825
 6
 56.908144
  H 1.480094 0.164720 -0.133536
  C 2.514699 -0.138649 -0.075813
  C 3.258449 -0.292317 -1.211270
  H 4.301210 -0.517434 -1.026673
  H 2.949184 -0.051003 0.895405
  H 2.651392 -1.199286 -1.300816
 6
 77.566467
  H 1.497588 0.161618 -0.235041
  C 2.527281 -0.172358 -0.159328
  C 3.319674 -0.218281 -1.311191
  H 4.367003 -0.453211 -1.064819
  H 2.884311 -0.201531 0.877010
  H 2.559234 -1.160120 -0.955802
 6
 75.062485
  H 1.508990 0.165798 -0.272564
  C 2.528092 -0.206044 -0.189204
  C 3.358345 -0.162914 -1.334447
  H 4.402777 -0.409656 -1.072231
  H 2.870414 -0.277180 0.854865
  H 2.476319 -1.214887 -0.773066
 6
 71.095957
  H 1.563678 0.218041 -0.319577
  C 2.522291 -0.286216 -0.244325
  C 3.405655 -0.085849 -1.363360
  H 4.444283 -0.333862 -1.083326
  H 2.889038 -0.326662 0.784320
  H 2.335470 -1.319801 -0.606497
 6
 70.711632
  H 1.576503 0.230972 -0.298297
  C 2.507873 -0.326256 -0.234871
  C 3.410108 -0.071836 -1.345371
  H 4.447261 -0.307978 -1.045869
  H 2.902233 -0.336272 0.788501
  H 2.267595 -1.362442 -0.515981
 6
 70.664250
  H 1.578353 0.233909 -0.300497
  C 2.508828 -0.328371 -0.234470
  C 3.410310 -0.069418 -1.342893
  H 4.451920 -0.305102 -1.050825
  H 2.898844 -0.337616 0.788449
  H 2.263319 -1.367215 -0.511651
