8

H -0.6405059149253083 -0.8181983312161646 0.7611068972538346
C -0.235585 -0.954038 0.808088
C 0.804897 -0.08403 0.113793
H 1.2286344812567669 -0.24248054995783858 0.1817848795804378
H -0.010673 -1.010247 1.878036
H -0.172512 -1.971283 0.414498
H 0.593666 -0.067496 -0.958861
H 0.739703 0.936442 0.495036
