17

H 1.433531663577898 -0.07464521245455633 0.041518566459711914
C 2.503397 -0.082351 0.026393
C 3.219242 -0.595147 -0.980315
C 4.65692 -0.606041 -1.001698
C 5.377655 -1.121228 -2.013093
C 6.816019 -1.130563 -2.031418
C 7.534354 -1.64239 -3.036228
C 9.024341 -1.661733 -3.074195
H 3.003598 0.353113 0.881284
H 2.708033 -1.028578 -1.831199
H 5.16216 -0.171472 -0.148572
H 4.874069 -1.556291 -2.867196
H 7.323438 -0.696132 -1.178557
H 7.03562 -2.078651 -3.892667
H 9.458183 -1.208577 -2.184577
H 9.383552 -1.115807 -3.947968
H 9.38355 -2.689498 -3.146359
