 13
 0.000000
  H -1.107541 -0.585028 0.688323
  C -0.660869 0.205477 0.103379
  C -1.547388 0.533411 -1.283082
  C -1.297594 1.468404 0.004896
  H -2.199468 1.662305 0.557227
  H -0.705774 2.349547 -0.202686
  H 0.404496 0.106371 -0.061611
  H -2.610171 0.319343 -1.295016
  H -1.047932 -0.427292 -1.525322
  H -1.207229 1.170933 -2.099083
  O 2.412074 -0.357288 -0.150464
  H 2.951236 0.019746 0.551216
  H 3.013859 -0.694537 -0.820731
 13
 -2.508739
  H -1.115071 -0.610131 0.664430
  C -0.669807 0.156815 0.043485
  C -1.595538 0.629647 -1.299462
  C -1.323729 1.457396 -0.035552
  H -2.183008 1.636291 0.593320
  H -0.706703 2.331787 -0.175739
  H 0.405122 0.076228 -0.088262
  H -2.634657 0.330768 -1.380141
  H -0.980397 -0.355776 -1.222708
  H -1.177530 1.122342 -2.171749
  O 2.404969 -0.342788 -0.162344
  H 2.951317 -0.009563 0.554713
  H 3.000850 -0.652853 -0.850515
 13
 -3.764837
  H -1.106622 -0.609755 0.680995
  C -0.662826 0.125595 0.020792
  C -1.596678 0.671770 -1.296870
  C -1.313161 1.455626 -0.043648
  H -2.147567 1.634028 0.618545
  H -0.671383 2.318075 -0.146391
  H 0.420343 0.076450 -0.066021
  H -2.619925 0.331716 -1.408388
  H -0.963936 -0.357369 -1.133097
  H -1.136736 1.071362 -2.194076
  O 2.396174 -0.326405 -0.156757
  H 2.959958 -0.028074 0.562026
  H 2.974215 -0.617610 -0.867862
 13
 -3.527755
  H -1.128793 -0.630523 0.629517
  C -0.674695 0.056436 -0.074086
  C -1.661890 0.711803 -1.298230
  C -1.261567 1.445104 -0.074958
  H -2.021697 1.655643 0.661970
  H -0.566260 2.263136 -0.200230
  H 0.414681 0.027111 -0.112122
  H -2.685083 0.359575 -1.345571
  H -0.968556 -0.384640 -1.168390
  H -1.240767 1.040146 -2.241267
  O 2.346341 -0.310979 -0.098282
  H 2.887676 -0.028695 0.641589
  H 2.934926 -0.443239 -0.845212
 13
 -1.669476
  H -1.142432 -0.672541 0.533105
  C -0.674116 -0.006939 -0.184147
  C -1.716214 0.759129 -1.273674
  C -1.191063 1.439186 -0.099303
  H -1.854974 1.647960 0.726338
  H -0.452043 2.212350 -0.256806
  H 0.423368 -0.010319 -0.147912
  H -2.731424 0.386252 -1.238892
  H -0.851195 -0.441274 -1.234120
  H -1.361210 1.041468 -2.257603
  O 2.279659 -0.298541 -0.038528
  H 2.775573 -0.035709 0.742003
  H 2.885858 -0.275856 -0.783741
 13
 -0.617335
  H -1.165797 -0.704915 0.431096
  C -0.693820 -0.038885 -0.283063
  C -1.773543 0.790691 -1.242753
  C -1.149235 1.449626 -0.128448
  H -1.720699 1.633738 0.767666
  H -0.390448 2.192836 -0.322282
  H 0.412093 -0.014263 -0.176619
  H -2.779382 0.412536 -1.145621
  H -0.668313 -0.525046 -1.286766
  H -1.473403 1.040625 -2.249592
  O 2.179770 -0.281471 -0.009456
  H 2.628182 -0.039651 0.806014
  H 2.800125 -0.149667 -0.732965
 13
 -0.869734
  H -1.138739 -0.757660 0.328435
  C -0.677348 -0.070379 -0.371793
  C -1.793958 0.789293 -1.194484
  C -1.062148 1.441735 -0.147672
  H -1.535125 1.610244 0.806805
  H -0.309749 2.170741 -0.405608
  H 0.448450 -0.015584 -0.191064
  H -2.795601 0.429387 -1.024522
  H -0.439604 -0.550986 -1.344632
  H -1.566154 1.025752 -2.222136
  O 2.090465 -0.271863 0.032379
  H 2.476645 -0.050435 0.885699
  H 2.721323 -0.023784 -0.648324
