 16
 0.000000
  C 1.010453 0.130483 0.389455
  C 2.474440 0.132517 0.389608
  C 3.211347 0.606416 1.561417
  H 2.547084 0.928864 2.358941
  C 3.131180 -0.328266 -0.758315
  C 4.525705 -0.394965 -0.928875
  C 5.080719 -0.856735 -2.082332
  H 4.471169 -1.188417 -2.908250
  H 6.148921 -0.907709 -2.212316
  H 0.588760 0.494115 1.320681
  H 0.633055 -0.874199 0.184205
  H 0.633685 0.735888 -0.439788
  H 3.874077 1.431111 1.289852
  H 3.873234 -0.175898 1.939644
  H 2.520006 -0.662159 -1.587320
  H 5.173336 -0.072648 -0.126098
 16
 4.107358
  C 1.009857 0.073399 0.434061
  C 2.444616 0.127088 0.408040
  C 3.202138 0.626766 1.542096
  H 2.551515 0.981295 2.336207
  C 3.110099 -0.330949 -0.756491
  C 4.509147 -0.386573 -0.930848
  C 5.064151 -0.849904 -2.077624
  H 4.456800 -1.197942 -2.893818
  H 6.129323 -0.884917 -2.210567
  H 0.544708 0.429680 1.343941
  H 0.573333 -0.875433 0.111435
  H 0.899981 0.763497 -0.400248
  H 3.888320 1.424637 1.250280
  H 3.832855 -0.175925 1.936926
  H 2.498933 -0.674650 -1.580279
  H 5.157987 -0.053648 -0.129770
 16
 11.933130
  C 1.003022 0.022905 0.460537
  C 2.423846 0.114380 0.399186
  C 3.199573 0.655897 1.532520
  H 2.554332 1.036994 2.316389
  C 3.089932 -0.341094 -0.763325
  C 4.487248 -0.383355 -0.932504
  C 5.056125 -0.847180 -2.076415
  H 4.456878 -1.208261 -2.894529
  H 6.122546 -0.868959 -2.201936
  H 0.529916 0.352332 1.371495
  H 0.523455 -0.850438 0.031607
  H 1.103436 0.791361 -0.317803
  H 3.900177 1.432286 1.236139
  H 3.794152 -0.167182 1.931449
  H 2.492498 -0.701092 -1.592983
  H 5.127912 -0.039585 -0.130944
 16
 18.314284
  C 0.995777 -0.013510 0.491052
  C 2.408819 0.101931 0.389402
  C 3.177085 0.671074 1.516690
  H 2.529196 1.064840 2.287981
  C 3.089117 -0.351266 -0.781566
  C 4.486958 -0.389059 -0.945029
  C 5.063888 -0.851112 -2.084448
  H 4.472719 -1.216085 -2.904938
  H 6.128749 -0.868217 -2.205498
  H 0.526254 0.282276 1.409271
  H 0.475399 -0.807906 -0.026738
  H 1.254772 0.835908 -0.199129
  H 3.874766 1.445812 1.200080
  H 3.771290 -0.137564 1.952320
  H 2.491771 -0.713492 -1.603730
  H 5.122464 -0.045563 -0.142315
 16
 23.093199
  C 0.990618 -0.048081 0.506582
  C 2.401936 0.102640 0.380029
  C 3.169721 0.683572 1.503717
  H 2.519037 1.084948 2.269335
  C 3.084227 -0.354217 -0.789686
  C 4.478563 -0.387900 -0.948919
  C 5.063929 -0.853760 -2.083815
  H 4.478816 -1.223607 -2.906037
  H 6.128482 -0.868213 -2.198817
  H 0.517478 0.221640 1.426498
  H 0.451446 -0.769338 -0.089686
  H 1.377987 0.861220 -0.103176
  H 3.863950 1.458951 1.175754
  H 3.763720 -0.114757 1.955832
  H 2.485242 -0.725155 -1.603577
  H 5.104921 -0.040661 -0.151088
 16
 26.346347
  C 0.991894 -0.083040 0.511339
  C 2.392197 0.121186 0.370887
  C 3.172226 0.700806 1.504851
  H 2.518330 1.103807 2.278304
  C 3.080686 -0.355189 -0.803423
  C 4.467872 -0.383852 -0.957611
  C 5.060573 -0.864452 -2.084267
  H 4.479677 -1.246710 -2.905087
  H 6.129203 -0.879066 -2.193026
  H 0.502229 0.143462 1.450991
  H 0.446815 -0.719629 -0.167887
  H 1.460354 0.890808 -0.025743
  H 3.856110 1.476557 1.174993
  H 3.765271 -0.089896 1.950428
  H 2.478110 -0.744143 -1.615748
  H 5.096742 -0.017716 -0.153738
 16
 29.967643
  C 0.989591 -0.102689 0.515130
  C 2.383370 0.135286 0.357944
  C 3.171938 0.711498 1.498941
  H 2.525683 1.112513 2.264171
  C 3.072004 -0.345918 -0.805477
  C 4.459302 -0.374724 -0.956118
  C 5.057573 -0.864185 -2.076348
  H 4.477839 -1.255269 -2.898220
  H 6.141340 -0.878177 -2.182152
  H 0.497875 0.119914 1.461729
  H 0.436075 -0.705107 -0.195072
  H 1.530206 0.895303 0.002064
  H 3.844358 1.479313 1.168017
  H 3.784897 -0.097571 1.959128
  H 2.470405 -0.743598 -1.622119
  H 5.080559 -0.004491 -0.159052
 16
 32.912996
  C 0.984291 -0.122290 0.523062
  C 2.378028 0.146648 0.360179
  C 3.169130 0.710432 1.503385
  H 2.519476 1.112823 2.274357
  C 3.076030 -0.342740 -0.810931
  C 4.466939 -0.372862 -0.960677
  C 5.062243 -0.865662 -2.076590
  H 4.469905 -1.267064 -2.914955
  H 6.129956 -0.881138 -2.179121
  H 0.490596 0.102100 1.457326
  H 0.434986 -0.698131 -0.206164
  H 1.582242 0.898838 0.022158
  H 3.856784 1.496090 1.168942
  H 3.758908 -0.075398 1.944967
  H 2.484071 -0.734891 -1.614574
  H 5.093906 0.001444 -0.159899
 16
 35.689157
  C 0.988454 -0.143405 0.523329
  C 2.376884 0.162505 0.352679
  C 3.173487 0.721000 1.504900
  H 2.524632 1.123337 2.273919
  C 3.075241 -0.333244 -0.815553
  C 4.459096 -0.360430 -0.961209
  C 5.059951 -0.862961 -2.075795
  H 4.478786 -1.270222 -2.900226
  H 6.113934 -0.888926 -2.168053
  H 0.485698 0.087703 1.458492
  H 0.444593 -0.701078 -0.218855
  H 1.634551 0.913401 0.018098
  H 3.853793 1.496897 1.175832
  H 3.775321 -0.086055 1.957002
  H 2.469532 -0.735068 -1.631482
  H 5.080704 0.015008 -0.163996
 16
 37.744345
  C 0.984179 -0.161711 0.535507
  C 2.369258 0.177965 0.355016
  C 3.172809 0.723013 1.511644
  H 2.528705 1.126278 2.278395
  C 3.072451 -0.334895 -0.824273
  C 4.458964 -0.359788 -0.971619
  C 5.058950 -0.868926 -2.078921
  H 4.480986 -1.270361 -2.896887
  H 6.154588 -0.894992 -2.177946
  H 0.476872 0.074695 1.461053
  H 0.434500 -0.703976 -0.220239
  H 1.673096 0.940337 0.017296
  H 3.863525 1.499597 1.185212
  H 3.757457 -0.078135 1.953011
  H 2.468431 -0.732499 -1.622048
  H 5.082406 0.026428 -0.175688
 16
 38.764208
  C 0.992743 -0.186412 0.547689
  C 2.362133 0.200080 0.347859
  C 3.172729 0.722856 1.511793
  H 2.525693 1.133249 2.286135
  C 3.077482 -0.327261 -0.832645
  C 4.460457 -0.352491 -0.971838
  C 5.065663 -0.872901 -2.075420
  H 4.492440 -1.284343 -2.890811
  H 6.129334 -0.887133 -2.173153
  H 0.483459 0.060606 1.463928
  H 0.441207 -0.715539 -0.209482
  H 1.721169 0.992315 -0.007316
  H 3.869924 1.491436 1.193283
  H 3.745641 -0.089299 1.948189
  H 2.472285 -0.733503 -1.629515
  H 5.078929 0.042019 -0.178338
 16
 40.269323
  C 0.996476 -0.205545 0.551328
  C 2.364689 0.211506 0.340866
  C 3.173687 0.730588 1.516242
  H 2.525591 1.143606 2.280250
  C 3.076221 -0.320746 -0.831296
  C 4.457680 -0.341571 -0.976026
  C 5.061086 -0.869104 -2.078994
  H 4.491952 -1.274328 -2.881392
  H 6.135389 -0.906410 -2.173110
  H 0.484457 0.046648 1.467162
  H 0.446688 -0.734071 -0.207327
  H 1.774739 1.014674 -0.023478
  H 3.874650 1.493425 1.204565
  H 3.741300 -0.090446 1.962062
  H 2.467705 -0.727817 -1.634465
  H 5.075530 0.055325 -0.185086
 16
 40.674355
  C 1.008090 -0.223787 0.557362
  C 2.359524 0.230908 0.334493
  C 3.173783 0.729900 1.517310
  H 2.525903 1.151106 2.281263
  C 3.076700 -0.314816 -0.833816
  C 4.457981 -0.337924 -0.973051
  C 5.061415 -0.872644 -2.070730
  H 4.484451 -1.292215 -2.884133
  H 6.130490 -0.885312 -2.172493
  H 0.494341 0.032251 1.470756
  H 0.459004 -0.751431 -0.203047
  H 1.826269 1.058814 -0.046981
  H 3.889084 1.487378 1.211477
  H 3.722505 -0.097156 1.958957
  H 2.470981 -0.730454 -1.626731
  H 5.075965 0.068222 -0.185351
 16
 40.655148
  C 1.013974 -0.240030 0.567612
  C 2.356346 0.244687 0.329069
  C 3.172283 0.732337 1.520364
  H 2.524618 1.168384 2.275048
  C 3.078929 -0.316555 -0.834479
  C 4.459996 -0.332769 -0.975449
  C 5.063306 -0.874742 -2.070322
  H 4.486119 -1.283699 -2.887406
  H 6.132355 -0.883669 -2.173608
  H 0.501132 0.020117 1.479922
  H 0.466988 -0.777886 -0.186853
  H 1.889113 1.097848 -0.078679
  H 3.903345 1.477423 1.219226
  H 3.700134 -0.102633 1.969583
  H 2.471861 -0.734580 -1.625331
  H 5.077555 0.088327 -0.195114
