 17
 0.000000
  H 1.455031 0.112846 0.332434
  C 2.536282 0.112235 0.330972
  C 3.212924 0.597582 1.535872
  H 2.502474 0.903209 2.295631
  C 3.160966 -0.347138 -0.810568
  C 4.548893 -0.410693 -0.969096
  C 5.219393 -0.865930 -2.106144
  C 4.571254 -1.357575 -3.334531
  H 3.492722 -1.337785 -3.287199
  O 6.522688 -0.882714 -2.148951
  H 3.865134 1.440871 1.299479
  H 3.865915 -0.173732 1.949543
  H 2.528452 -0.673315 -1.622258
  H 5.161637 -0.078944 -0.141107
  H 4.913716 -2.372940 -3.535445
  H 4.914981 -0.762116 -4.180690
  H 6.975354 -0.562019 -1.349259
 17
 -0.134360
  H 1.468018 0.203488 0.294438
  C 2.547475 0.137570 0.320188
  C 3.206791 0.594177 1.544493
  H 2.508216 0.635265 2.376405
  C 3.173758 -0.343379 -0.809546
  C 4.559364 -0.452352 -0.953302
  C 5.225011 -0.919957 -2.090551
  C 4.569423 -1.380143 -3.330035
  H 3.493466 -1.437170 -3.250705
  O 6.528363 -0.976534 -2.125194
  H 3.581151 1.610820 1.389470
  H 4.067001 -0.015205 1.808807
  H 2.541400 -0.640956 -1.631753
  H 5.175409 -0.141341 -0.119556
  H 4.975197 -2.352563 -3.610918
  H 4.836582 -0.705116 -4.141463
  H 6.986942 -0.665967 -1.321061
 17
 0.373733
  H 1.474638 -0.009283 0.379050
  C 2.555033 0.030435 0.357063
  C 3.195003 0.782203 1.435866
  H 2.610044 0.720044 2.350777
  C 3.185939 -0.552086 -0.718440
  C 4.572417 -0.643214 -0.876095
  C 5.231503 -0.986515 -2.059434
  C 4.571554 -1.171413 -3.365659
  H 3.492498 -1.122661 -3.310796
  O 6.531107 -1.101426 -2.097853
  H 3.208408 1.841580 1.159418
  H 4.223775 0.487079 1.618890
  H 2.554673 -0.966720 -1.490797
  H 5.192126 -0.426543 -0.015901
  H 4.883940 -2.122909 -3.795959
  H 4.932473 -0.405611 -4.053383
  H 6.990645 -1.004145 -1.241587
 17
 2.659276
  H 1.481276 -0.189554 0.445066
  C 2.553175 -0.076496 0.356850
  C 3.171737 0.930495 1.218484
  H 2.757023 0.873369 2.224722
  C 3.199724 -0.796849 -0.610869
  C 4.595537 -0.872726 -0.768920
  C 5.249737 -1.037569 -1.987572
  C 4.575771 -0.921960 -3.295633
  H 3.504516 -0.797583 -3.205867
  O 6.543971 -1.200311 -2.058183
  H 2.899166 1.923714 0.851121
  H 4.255177 0.868450 1.239422
  H 2.588444 -1.354143 -1.309802
  H 5.205044 -0.803482 0.123599
  H 4.807216 -1.799209 -3.900379
  H 4.994579 -0.073159 -3.836870
  H 7.001903 -1.321023 -1.204421
 17
 8.403135
  H 1.467685 -0.259589 0.392564
  C 2.538131 -0.158863 0.281638
  C 3.157840 1.015240 0.908553
  H 2.804823 1.111400 1.935895
  C 3.204977 -1.048121 -0.492967
  C 4.618959 -1.129069 -0.654157
  C 5.268533 -1.039403 -1.876429
  C 4.568233 -0.654378 -3.118969
  H 3.502441 -0.541678 -2.968950
  O 6.562397 -1.185145 -1.995743
  H 2.827556 1.923186 0.400299
  H 4.242245 0.975274 0.872785
  H 2.622509 -1.763251 -1.067605
  H 5.212539 -1.275549 0.242258
  H 4.768269 -1.399004 -3.889667
  H 4.986039 0.278150 -3.498009
  H 7.028923 -1.484298 -1.192533
 17
 15.255636
  H 1.462069 -0.304889 0.308411
  C 2.530679 -0.216740 0.179597
  C 3.140587 1.070506 0.582735
  H 2.809047 1.323260 1.589386
  C 3.215287 -1.217954 -0.379082
  C 4.638509 -1.328057 -0.580310
  C 5.277211 -1.007634 -1.771449
  C 4.557111 -0.418249 -2.915355
  H 3.494957 -0.328353 -2.721369
  O 6.565987 -1.143549 -1.930564
  H 2.792553 1.875239 -0.064632
  H 4.225414 1.027813 0.539006
  H 2.660441 -2.076248 -0.759929
  H 5.223896 -1.707645 0.250328
  H 4.733224 -1.028725 -3.802047
  H 4.975863 0.560073 -3.152834
  H 7.046933 -1.556456 -1.188017
 17
 11.606158
  H 1.464571 -0.303788 0.218762
  C 2.531234 -0.238927 0.071157
  C 3.143849 1.074083 0.343494
  H 2.821697 1.456054 1.312128
  C 3.212974 -1.332561 -0.318794
  C 4.619253 -1.451761 -0.572231
  C 5.274160 -0.955159 -1.691023
  C 4.567661 -0.243111 -2.769702
  H 3.503126 -0.164278 -2.574254
  O 6.561473 -1.099084 -1.872451
  H 2.771427 1.786172 -0.395929
  H 4.228868 1.040851 0.306804
  H 2.677193 -2.274552 -0.396966
  H 5.177395 -2.041659 0.147745
  H 4.734389 -0.753591 -3.718111
  H 5.009354 0.749241 -2.891885
  H 7.041526 -1.564675 -1.162053
 17
 5.222388
  H 1.481793 -0.340999 0.204496
  C 2.544478 -0.280429 0.013674
  C 3.132437 1.060187 0.108336
  H 2.820913 1.534509 1.039406
  C 3.234014 -1.434382 -0.211216
  C 4.594034 -1.580440 -0.570474
  C 5.260646 -0.915804 -1.595723
  C 4.577655 -0.079436 -2.604113
  H 3.509063 -0.032239 -2.441352
  O 6.545779 -1.055558 -1.790287
  H 2.715976 1.691662 -0.679933
  H 4.215523 1.051890 0.046647
  H 2.719694 -2.368443 -0.007687
  H 5.134073 -2.357829 -0.041820
  H 4.780038 -0.488463 -3.594878
  H 5.011747 0.919821 -2.607492
  H 7.017532 -1.593751 -1.127068
 17
 4.959440
  H 1.499663 -0.269317 0.048026
  C 2.575524 -0.275033 -0.061197
  C 3.212071 1.041838 0.043044
  H 2.809344 1.563632 0.912466
  C 3.233518 -1.472000 -0.181058
  C 4.554699 -1.661180 -0.612453
  C 5.221761 -0.870451 -1.550964
  C 4.521180 -0.070209 -2.578790
  H 3.444825 -0.131793 -2.488567
  O 6.520775 -0.862584 -1.676255
  H 2.928388 1.666013 -0.805935
  H 4.293182 0.984088 0.117890
  H 2.712015 -2.360657 0.154640
  H 5.069943 -2.536862 -0.237801
  H 4.824491 -0.448516 -3.556018
  H 4.857618 0.965554 -2.551497
  H 7.010548 -1.418974 -1.041377
 17
 9.492305
  H 1.539495 -0.125181 -0.252359
  C 2.613297 -0.228243 -0.168474
  C 3.325675 1.022113 0.118470
  H 2.782729 1.568353 0.890775
  C 3.208758 -1.469560 -0.214251
  C 4.522645 -1.684132 -0.632382
  C 5.171845 -0.824275 -1.530237
  C 4.448332 -0.159186 -2.637374
  H 3.379486 -0.327520 -2.597644
  O 6.460716 -0.638862 -1.564944
  H 3.312407 1.686723 -0.748723
  H 4.351231 0.857185 0.432646
  H 2.643122 -2.322650 0.140865
  H 5.032354 -2.584036 -0.316106
  H 4.844747 -0.565064 -3.569526
  H 4.673273 0.906038 -2.666718
  H 6.979520 -1.133160 -0.901839
 17
 19.090753
  H 1.662941 0.045327 -0.562215
  C 2.688248 -0.144586 -0.270857
  C 3.414856 1.020661 0.247589
  H 2.758473 1.560090 0.932284
  C 3.184077 -1.446933 -0.227552
  C 4.466408 -1.713616 -0.659207
  C 5.093440 -0.782838 -1.524814
  C 4.403352 -0.287191 -2.734996
  H 3.360786 -0.578077 -2.769508
  O 6.336584 -0.419505 -1.436155
  H 3.641125 1.742863 -0.541590
  H 4.332312 0.744869 0.756868
  H 2.562278 -2.236034 0.176563
  H 4.971635 -2.635146 -0.410347
  H 4.926184 -0.714895 -3.592950
  H 4.506252 0.792216 -2.840537
  H 6.854189 -0.825856 -0.713763
 17
 29.689441
  H 1.880856 0.174614 -0.828345
  C 2.824377 -0.079764 -0.360273
  C 3.502433 1.011992 0.349757
  H 2.758379 1.557358 0.934992
  C 3.186680 -1.450576 -0.213858
  C 4.415194 -1.765480 -0.684541
  C 4.979180 -0.735128 -1.525351
  C 4.356929 -0.394625 -2.820465
  H 3.361640 -0.808785 -2.926364
  O 6.139672 -0.200228 -1.322685
  H 3.910919 1.758835 -0.336729
  H 4.289648 0.653672 1.005821
  H 2.510242 -2.158285 0.245694
  H 4.940694 -2.690411 -0.506338
  H 5.000084 -0.812652 -3.599562
  H 4.350382 0.680720 -2.992233
  H 6.632427 -0.522170 -0.542334
 17
 32.960234
  H 2.193059 0.228409 -1.096839
  C 3.029087 -0.071263 -0.475749
  C 3.622971 0.978772 0.363513
  H 2.816326 1.562380 0.816227
  C 3.218982 -1.491023 -0.199624
  C 4.395994 -1.847363 -0.711665
  C 4.864779 -0.700015 -1.509350
  C 4.315755 -0.452009 -2.865180
  H 3.376945 -0.966405 -3.032519
  O 5.947409 -0.038854 -1.226282
  H 4.183104 1.704261 -0.231642
  H 4.259540 0.576452 1.146020
  H 2.489264 -2.110776 0.296159
  H 4.942546 -2.767559 -0.597360
  H 5.049831 -0.825380 -3.585745
  H 4.219802 0.613214 -3.064772
  H 6.418290 -0.319362 -0.418410
 17
 28.236998
  H 2.588736 0.249030 -1.310645
  C 3.302015 -0.051321 -0.547722
  C 3.613903 1.012454 0.434984
  H 2.664559 1.379319 0.836909
  C 3.254084 -1.467619 -0.120232
  C 4.304237 -1.910510 -0.811682
  C 4.696464 -0.643692 -1.506626
  C 4.329287 -0.470183 -2.956207
  H 3.368028 -0.916666 -3.185280
  O 5.836973 -0.031916 -1.199528
  H 4.094127 1.866157 -0.040817
  H 4.213807 0.655889 1.267104
  H 2.612244 -1.933597 0.603495
  H 4.818081 -2.854137 -0.837097
  H 5.102230 -0.972854 -3.540650
  H 4.342814 0.579814 -3.236795
  H 6.293230 -0.379179 -0.412392
 17
 31.574382
  H 2.615278 0.349172 -1.277867
  C 3.376854 -0.046474 -0.600946
  C 3.706794 0.923949 0.499106
  H 2.804056 1.478146 0.760648
  C 3.174296 -1.476344 -0.199312
  C 4.315465 -1.840656 -0.785763
  C 4.644670 -0.532508 -1.520553
  C 4.291413 -0.549288 -2.990425
  H 3.288328 -0.924709 -3.159005
  O 5.855373 0.021555 -1.338947
  H 4.443916 1.651403 0.166709
  H 4.053772 0.428491 1.401935
  H 2.343629 -1.977700 0.251007
  H 5.048971 -2.608307 -0.602468
  H 5.003567 -1.183523 -3.515725
  H 4.390865 0.452722 -3.401178
  H 6.188876 -0.035884 -0.426845
