13

H 3.587841625753362 -0.5975286858979524 -0.9849893584968015
C 4.657707 -0.605233 -1.000113
C 5.378782 -1.120379 -2.01143
C 6.817319 -1.129711 -2.029746
C 7.533529 -1.64232 -3.03609
C 9.023567 -1.662264 -3.075238
H 5.161765 -0.170189 -0.146052
H 4.875205 -1.555492 -2.865629
H 7.324883 -0.695468 -1.177254
H 7.034393 -2.079347 -3.894028
H 9.458369 -1.209239 -2.185879
H 9.38234 -1.116452 -3.949354
H 9.38234 -2.69024 -3.147693
