15

H -3.505186 0.983952 -0.129497
C -2.061379 0.588933 -0.028957
C -1.647124 -0.474912 0.637823
C -0.236652 -0.945747 0.797224
C 0.812019 -0.080276 0.109748
C 2.221267 -0.616397 0.345022
H 2.9470989083154446 -0.015009448364906253 -0.22198862918565104
H -1.355965 1.230923 -0.537468
H -2.380102 -1.100132 1.135732
H -0.011413 -1.001889 1.868972
H -0.174309 -1.966771 0.403697
H 0.610108 -0.052561 -0.961156
H 0.752647 0.93958 0.4954
H 2.422817 -0.582718 1.417625
H 2.270273 -1.661292 0.032792
