 23
 0.000000
  C 0.966881 0.140951 0.402175
  C 2.445261 0.138532 0.395784
  H 3.014192 0.476454 1.236632
  C 3.056527 -0.326240 -0.761266
  C 4.434557 -0.412807 -0.977341
  C 5.116634 -0.862171 -2.097644
  C 4.626711 -1.386353 -3.404443
  C 3.136043 -1.505154 -3.701248
  C 2.912140 -2.067102 -5.102315
  O 6.441363 -0.854110 -2.077903
  H 0.534203 0.511600 1.324625
  H 0.594015 -0.871193 0.237377
  H 0.593750 0.757524 -0.417125
  H 2.395882 -0.642369 -1.548407
  H 5.050449 -0.080233 -0.149165
  H 5.083529 -2.374996 -3.529298
  H 5.083826 -0.758265 -4.177923
  H 2.660333 -0.524837 -3.647836
  H 2.660040 -2.176678 -2.985238
  H 3.350661 -1.419589 -5.858660
  H 1.846690 -2.148343 -5.305348
  H 3.350382 -3.057936 -5.201501
  H 6.799446 -0.516763 -1.236311
 23
 0.000000
  C 1.034462 0.103618 0.309124
  C 2.512162 0.120726 0.351389
  H 3.048604 0.465947 1.210438
  C 3.167263 -0.335675 -0.784826
  C 4.452828 -0.410187 -0.970825
  C 5.084347 -0.848061 -2.062475
  C 4.593552 -1.372131 -3.368992
  C 3.102686 -1.490587 -3.664940
  C 2.877848 -2.052485 -5.065877
  O 6.311392 -0.831286 -2.020982
  H 0.566802 0.468316 1.216762
  H 0.680620 -0.913326 0.132355
  H 0.680383 0.715392 -0.522144
  H 2.567116 -0.660170 -1.592838
  H 5.072675 -0.078636 -0.145194
  H 5.050069 -2.360880 -3.494108
  H 5.050367 -0.744149 -4.142735
  H 2.627233 -0.510160 -3.611256
  H 2.626939 -2.162001 -2.948656
  H 3.316084 -1.405075 -5.822475
  H 1.812263 -2.133480 -5.268298
  H 3.315804 -3.043421 -5.165314
  H 6.602016 -0.482367 -1.150510
 23
 0.000000
  C 1.103248 0.066187 0.215828
  C 2.578278 0.103531 0.308514
  H 3.080302 0.455863 1.185302
  C 3.277983 -0.343581 -0.804577
  C 4.469592 -0.406915 -0.962684
  C 5.053802 -0.834531 -2.028754
  C 4.561703 -1.358433 -3.334847
  C 3.070542 -1.476375 -3.629514
  C 2.844306 -2.038196 -5.030257
  O 6.181299 -0.810543 -1.969248
  H 0.599917 0.424226 1.106893
  H 0.769612 -0.955468 0.027310
  H 0.769403 0.673251 -0.627186
  H 2.738768 -0.676900 -1.634599
  H 5.093697 -0.076477 -0.139818
  H 5.017771 -2.347339 -3.460355
  H 5.018070 -0.730610 -4.108984
  H 2.595475 -0.495783 -3.575422
  H 2.595180 -2.147623 -2.912820
  H 3.282115 -1.390938 -5.787232
  H 1.778519 -2.118823 -5.231761
  H 3.281834 -3.029283 -5.130068
  H 6.398788 -0.449138 -1.067617
 23
 0.000000
  C 1.172864 0.028979 0.123086
  C 2.643007 0.087291 0.268024
  H 3.108551 0.446510 1.161987
  C 3.388051 -0.349529 -0.819444
  C 4.484945 -0.402654 -0.952078
  C 5.025537 -0.821876 -1.997214
  C 4.531552 -1.345533 -3.302694
  C 3.039968 -1.462731 -3.595505
  C 2.811708 -2.024440 -4.995964
  O 6.052171 -0.792252 -1.923631
  H 0.633196 0.379588 0.995654
  H 0.860700 -0.997275 -0.076899
  H 0.860522 0.631446 -0.731391
  H 2.910893 -0.692335 -1.673128
  H 5.113697 -0.073443 -0.132264
  H 4.986970 -2.334668 -3.428766
  H 4.987270 -0.717939 -4.077398
  H 2.565458 -0.481902 -3.540824
  H 2.565161 -2.133740 -2.878219
  H 3.248899 -1.377401 -5.753484
  H 1.745632 -2.104535 -5.196143
  H 3.248617 -3.015746 -5.096318
  H 6.188571 -0.417585 -0.988901
 23
 0.000000
  C 1.242708 -0.007543 0.032056
  C 2.705490 0.072483 0.231103
  H 3.132382 0.438305 1.141538
  C 3.496524 -0.352960 -0.828037
  C 4.499063 -0.396947 -0.937865
  C 5.000229 -0.810493 -1.968844
  C 4.503604 -1.333805 -3.273460
  C 3.011430 -1.449959 -3.563671
  C 2.780337 -2.011510 -4.963729
  O 5.925483 -0.776851 -1.885215
  H 0.666090 0.334798 0.884040
  H 0.953354 -1.038250 -0.179036
  H 0.953207 0.590473 -0.833523
  H 3.083457 -0.706100 -1.707495
  H 5.132968 -0.069113 -0.121474
  H 4.958109 -2.323258 -3.400325
  H 4.958410 -0.706531 -4.048959
  H 2.537702 -0.468799 -3.508165
  H 2.537405 -2.120636 -2.845558
  H 3.216659 -1.364778 -5.722011
  H 1.713857 -2.090859 -5.162049
  H 3.216376 -3.003121 -5.064843
  H 5.970076 -0.388530 -0.916410
 23
 0.000000
  C 1.311804 -0.042671 -0.055501
  C 2.764495 0.059775 0.199415
  H 3.150524 0.431844 1.125436
  C 3.601975 -0.353141 -0.828529
  C 4.512213 -0.389169 -0.918490
  C 4.978733 -0.800928 -1.945009
  C 4.478531 -1.323770 -3.248447
  C 2.985565 -1.438510 -3.535132
  C 2.750634 -1.999841 -4.934639
  O 5.803256 -0.764866 -1.855320
  H 0.697773 0.290510 0.773675
  H 1.046628 -1.077642 -0.277231
  H 1.046514 0.551083 -0.931711
  H 3.256131 -0.717616 -1.736250
  H 5.151942 -0.062911 -0.106019
  H 4.931797 -2.313653 -3.376382
  H 4.932097 -0.696927 -4.025020
  H 2.512900 -0.456901 -3.478509
  H 2.512603 -2.108737 -2.815899
  H 3.185776 -1.353523 -5.693951
  H 1.683614 -2.078180 -5.130439
  H 3.185493 -2.991865 -5.036780
  H 5.742087 -0.363240 -0.853304
 23
 0.000000
  C 1.378549 -0.075270 -0.136757
  C 2.818216 0.050148 0.175412
  H 3.161347 0.428005 1.115876
  C 3.702172 -0.349090 -0.818469
  C 4.524785 -0.378476 -0.891845
  C 4.962141 -0.793967 -1.927664
  C 4.457271 -1.316188 -3.229549
  C 2.963287 -1.429079 -3.511624
  C 2.723342 -1.990119 -4.910398
  O 5.688346 -0.756976 -1.835632
  H 0.726971 0.247854 0.667376
  H 1.138820 -1.114252 -0.368492
  H 1.138741 0.514477 -1.022965
  H 3.427818 -0.726042 -1.757300
  H 5.171239 -0.054064 -0.083971
  H 4.908914 -2.306632 -3.358880
  H 4.909214 -0.689907 -4.007520
  H 2.492015 -0.446886 -3.453546
  H 2.491717 -2.098721 -2.790933
  H 3.156938 -1.344339 -5.671052
  H 1.655626 -2.067135 -5.102903
  H 3.156655 -2.982680 -5.013878
  H 5.503833 -0.343588 -0.804255
 23
 0.000000
  C 1.438743 -0.102764 -0.205285
  C 2.862916 0.045200 0.163075
  H 3.162909 0.428118 1.116166
  C 3.791354 -0.339765 -0.795257
  C 4.537051 -0.364148 -0.856139
  C 4.952188 -0.790881 -1.919978
  C 4.441646 -1.312339 -3.219956
  C 2.946445 -1.422979 -3.496418
  C 2.700403 -1.983654 -4.894278
  O 5.587503 -0.754188 -1.828664
  H 0.751117 0.209815 0.572582
  H 1.224668 -1.145319 -0.445934
  H 1.224623 0.483413 -1.100399
  H 3.591548 -0.730347 -1.768067
  H 5.191292 -0.041913 -0.053680
  H 4.891308 -2.303462 -3.350979
  H 4.891608 -0.686738 -3.999622
  H 2.476874 -0.440076 -3.436574
  H 2.476577 -2.091910 -2.773957
  H 3.132112 -1.338527 -5.656558
  H 1.631857 -2.059062 -5.082772
  H 3.131828 -2.976867 -4.999381
  H 5.261817 -0.332364 -0.776227
 23
 0.000000
  C 1.481829 -0.119995 -0.248232
  C 2.891401 0.046255 0.165700
  H 3.155630 0.432811 1.127871
  C 3.855067 -0.326498 -0.762211
  C 4.548108 -0.348147 -0.816259
  C 4.950733 -0.792889 -1.924987
  C 4.434699 -1.313599 -3.223096
  C 2.938341 -1.422053 -3.494110
  C 2.686392 -1.982366 -4.891064
  O 5.517109 -0.757024 -1.835719
  H 0.765569 0.183522 0.507063
  H 1.289072 -1.165175 -0.495431
  H 1.289054 0.463559 -1.149890
  H 3.720943 -0.730859 -1.769364
  H 5.210319 -0.028181 -0.019449
  H 4.882432 -2.305377 -3.355750
  H 4.882733 -0.688655 -4.004397
  H 2.470428 -0.438465 -3.432561
  H 2.470130 -2.090298 -2.769942
  H 3.116265 -1.337870 -5.654913
  H 1.617058 -2.056212 -5.075665
  H 3.115980 -2.976208 -4.997733
  H 5.052753 -0.331337 -0.773633
 23
 0.000000
  C 1.508608 -0.127442 -0.266791
  C 2.905731 0.052808 0.182033
  H 3.142093 0.441859 1.150431
  C 3.895838 -0.310196 -0.721595
  C 4.558430 -0.331007 -0.773534
  C 4.956195 -0.799460 -1.941369
  C 4.435381 -1.319511 -3.237832
  C 2.938033 -1.426059 -3.504095
  C 2.680938 -1.986049 -4.900240
  O 5.473250 -0.764321 -1.853898
  H 0.770801 0.168820 0.470432
  H 1.332490 -1.174462 -0.518581
  H 1.332494 0.454275 -1.173034
  H 3.818059 -0.729719 -1.766525
  H 5.228916 -0.013442 0.017295
  H 4.881427 -2.311859 -3.371904
  H 4.881727 -0.695137 -4.020553
  H 2.471571 -0.441876 -3.441064
  H 2.471272 -2.093707 -2.778442
  H 3.109204 -1.342100 -5.665452
  H 1.610929 -2.058533 -5.081446
  H 3.108919 -2.980438 -5.008269
  H 4.872789 -0.338153 -0.790605
 23
 0.000000
  C 1.519402 -0.125208 -0.261221
  C 2.907369 0.064606 0.211440
  H 3.124445 0.455213 1.183720
  C 3.915268 -0.291535 -0.675090
  C 4.568004 -0.313303 -0.729405
  C 4.967521 -0.810211 -1.968172
  C 4.443141 -1.329766 -3.263396
  C 2.945065 -1.434890 -3.526109
  C 2.684129 -1.994636 -4.921639
  O 5.453048 -0.775298 -1.881258
  H 0.767067 0.165935 0.463250
  H 1.354814 -1.173399 -0.515930
  H 1.354833 0.455340 -1.170379
  H 3.883602 -0.729437 -1.765809
  H 5.247191 0.001685 0.055005
  H 4.887924 -2.322538 -3.398523
  H 4.888224 -0.705818 -4.047174
  H 2.479690 -0.450265 -3.461974
  H 2.479391 -2.102095 -2.799349
  H 3.111193 -1.351095 -5.687865
  H 1.613626 -2.066103 -5.100308
  H 3.110907 -2.989431 -5.030680
  H 4.717177 -0.350448 -0.821246
 23
 0.000000
  C 1.514403 -0.113369 -0.231708
  C 2.897508 0.081309 0.253071
  H 3.104699 0.472659 1.227207
  C 3.914366 -0.271278 -0.624605
  C 4.576218 -0.295886 -0.685990
  C 4.983745 -0.824658 -2.004187
  C 4.457587 -1.343966 -3.298789
  C 2.959152 -1.448380 -3.559731
  C 2.696301 -2.008003 -4.954951
  O 5.454094 -0.789221 -1.915964
  H 0.754742 0.175119 0.486151
  H 1.355729 -1.162126 -0.487832
  H 1.355754 0.466612 -1.142279
  H 3.916954 -0.732753 -1.774048
  H 5.264498 0.016351 0.091564
  H 4.901740 -2.336948 -3.434441
  H 4.902040 -0.720229 -4.083095
  H 2.494320 -0.463534 -3.495048
  H 2.494021 -2.115363 -2.832420
  H 3.122764 -1.364665 -5.721683
  H 1.625553 -2.078963 -5.132354
  H 3.122478 -3.003001 -5.064495
  H 4.581158 -0.365872 -0.859688
 23
 0.000000
  C 1.495236 -0.093279 -0.181632
  C 2.878086 0.101652 0.303777
  H 3.084762 0.493040 1.278007
  C 3.895407 -0.250747 -0.573438
  C 4.581710 -0.280042 -0.646499
  C 5.003007 -0.841627 -2.046492
  C 4.477497 -1.361028 -3.341320
  C 2.979193 -1.465702 -3.602906
  C 2.717038 -2.025374 -4.998238
  O 5.472039 -0.804833 -1.954885
  H 0.735197 0.195069 0.535883
  H 1.336871 -1.142066 -0.437828
  H 1.336895 0.486673 -1.092274
  H 3.918696 -0.741690 -1.796281
  H 5.279034 0.029399 0.124084
  H 4.921880 -2.353934 -3.476778
  H 4.922178 -0.737215 -4.125435
  H 2.514162 -0.480937 -3.538424
  H 2.513865 -2.132765 -2.875794
  H 3.143719 -1.381962 -5.764787
  H 1.646380 -2.096519 -5.176101
  H 3.143435 -3.020297 -5.107597
  H 4.460331 -0.382215 -0.900417
 23
 0.000000
  C 1.465568 -0.068107 -0.118886
  C 2.851731 0.123534 0.358316
  H 3.065108 0.514422 1.331302
  C 3.862994 -0.231277 -0.524911
  C 4.582803 -0.266680 -0.613195
  C 5.022465 -0.859401 -2.090802
  C 4.500469 -1.379296 -3.386853
  C 3.002879 -1.485377 -3.651938
  C 2.744511 -2.045295 -5.047878
  O 5.499305 -0.820517 -1.993991
  H 0.710482 0.222043 0.603120
  H 1.303195 -1.116512 -0.374131
  H 1.303211 0.512227 -1.028578
  H 3.894121 -0.756105 -1.832162
  H 5.288441 0.040138 0.150842
  H 4.946099 -2.371784 -3.521270
  H 4.946395 -0.755066 -4.169928
  H 2.536774 -0.501048 -3.588546
  H 2.536480 -2.152876 -2.925914
  H 3.172377 -1.401483 -5.813430
  H 1.674338 -2.117445 -5.228242
  H 3.172096 -3.039817 -5.156238
  H 4.348427 -0.398487 -0.940969
