 13
 0.000000
  C 0.993150 0.137551 0.404694
  C 2.437472 0.102358 0.313905
  H 3.030894 0.440573 1.155368
  C 3.095623 -0.351231 -0.817432
  C 4.498188 -0.386486 -0.919684
  C 5.123025 -0.840570 -2.040773
  H 4.557213 -1.192435 -2.889796
  H 6.196785 -0.865017 -2.118124
  H 0.628156 0.510498 1.356130
  H 0.575058 -0.855390 0.197068
  H 0.584394 0.735006 -0.419605
  H 2.516480 -0.695310 -1.665488
  H 5.086443 -0.039920 -0.080598
 13
 0.556825
  C 1.000138 0.189372 0.383496
  C 2.433512 0.006393 0.348331
  H 3.024134 0.306202 1.206414
  C 3.094136 -0.498443 -0.758450
  C 4.490836 -0.405963 -0.912747
  C 5.116303 -0.790057 -2.059111
  H 4.570987 -1.251043 -2.868664
  H 6.176480 -0.649119 -2.195235
  H 0.643507 0.597089 1.321814
  H 0.481444 -0.747333 0.143889
  H 0.696361 0.836251 -0.450400
  H 2.519986 -0.930974 -1.569079
  H 5.067167 0.039808 -0.112251
 13
 2.212741
  C 1.016359 0.211089 0.366582
  C 2.428923 -0.101967 0.404143
  H 3.001888 0.158893 1.287362
  C 3.103160 -0.644399 -0.677304
  C 4.475085 -0.420818 -0.894914
  C 5.085449 -0.780221 -2.057060
  H 4.567160 -1.351820 -2.810735
  H 6.105762 -0.506242 -2.261724
  H 0.651291 0.647177 1.289399
  H 0.421156 -0.661785 0.079868
  H 0.842893 0.902358 -0.470311
  H 2.546455 -1.171976 -1.442561
  H 5.029669 0.136263 -0.151612
 13
 4.604539
  C 1.039054 0.277346 0.343220
  C 2.415703 -0.152096 0.403142
  H 2.967568 0.001715 1.325016
  C 3.103086 -0.671309 -0.683259
  C 4.452494 -0.354875 -0.940626
  C 5.090129 -0.758560 -2.071122
  H 4.632065 -1.450982 -2.758726
  H 6.075644 -0.401775 -2.314685
  H 0.695553 0.724615 1.268827
  H 0.374251 -0.538084 0.040860
  H 0.946285 0.995793 -0.479487
  H 2.572720 -1.272380 -1.415880
  H 4.950550 0.321304 -0.257606
 13
 8.703300
  C 1.079648 0.340086 0.312567
  C 2.408297 -0.219331 0.433989
  H 2.915999 -0.150920 1.393054
  C 3.117858 -0.754154 -0.631814
  C 4.412917 -0.329726 -0.962603
  C 5.059666 -0.743622 -2.082520
  H 4.660458 -1.525345 -2.708779
  H 5.990276 -0.294343 -2.386696
  H 0.729851 0.807216 1.224044
  H 0.352537 -0.404752 -0.032218
  H 1.111636 1.065854 -0.507198
  H 2.628259 -1.465252 -1.293729
  H 4.857497 0.434915 -0.341301
 13
 13.559208
  C 1.124161 0.401414 0.284146
  C 2.398187 -0.258899 0.464488
  H 2.844579 -0.271318 1.457903
  C 3.137286 -0.804243 -0.584033
  C 4.378546 -0.303319 -0.994043
  C 5.025253 -0.741132 -2.104592
  H 4.645844 -1.557632 -2.695640
  H 5.930774 -0.268022 -2.441241
  H 0.747583 0.858522 1.190071
  H 0.366740 -0.278598 -0.125520
  H 1.258451 1.142484 -0.508735
  H 2.693444 -1.604306 -1.171067
  H 4.795314 0.519475 -0.428057
 13
 19.137062
  C 1.172580 0.472189 0.284069
  C 2.394017 -0.264289 0.481372
  H 2.761466 -0.418542 1.495032
  C 3.148995 -0.803198 -0.574026
  C 4.348617 -0.274076 -1.040458
  C 5.005645 -0.763794 -2.129667
  H 4.659696 -1.638243 -2.653379
  H 5.885728 -0.276744 -2.509597
  H 0.774339 0.899608 1.196103
  H 0.400861 -0.154203 -0.187958
  H 1.360770 1.234800 -0.475092
  H 2.733398 -1.660751 -1.099258
  H 4.734642 0.603879 -0.543733
 13
 26.208341
  C 1.244371 0.566415 0.294561
  C 2.367257 -0.305137 0.489527
  H 2.644082 -0.593057 1.500913
  C 3.161016 -0.824465 -0.569266
  C 4.293498 -0.238078 -1.111096
  C 4.976105 -0.773253 -2.169392
  H 4.675411 -1.700248 -2.626483
  H 5.833159 -0.274359 -2.582035
  H 0.856934 0.985051 1.217004
  H 0.436187 0.010529 -0.202332
  H 1.473333 1.331920 -0.453606
  H 2.826359 -1.769623 -0.992640
  H 4.641469 0.690015 -0.679423
 13
 16.856539
  C 1.325719 0.637003 0.279379
  C 2.344849 -0.368329 0.479348
  H 2.477380 -0.776307 1.475574
  C 3.179411 -0.866245 -0.526923
  C 4.225418 -0.195057 -1.168642
  C 4.912328 -0.754194 -2.200422
  H 4.646228 -1.714965 -2.600179
  H 5.748255 -0.246582 -2.648626
  H 0.917426 1.026855 1.205556
  H 0.513206 0.152711 -0.283446
  H 1.618356 1.429568 -0.420931
  H 2.997604 -1.896161 -0.828237
  H 4.512602 0.780128 -0.798501
 13
 10.093432
  C 1.425634 0.670494 0.249527
  C 2.331232 -0.427143 0.499442
  H 2.319147 -0.898720 1.477408
  C 3.211426 -0.920097 -0.451895
  C 4.159363 -0.174593 -1.181805
  C 4.839858 -0.721476 -2.223415
  H 4.614274 -1.708799 -2.590775
  H 5.611859 -0.172904 -2.734657
  H 0.977611 1.079962 1.148057
  H 0.613898 0.274185 -0.377232
  H 1.860619 1.425444 -0.408070
  H 3.141100 -1.980572 -0.682523
  H 4.387855 0.826738 -0.845070
 13
 4.966506
  C 1.502142 0.711540 0.263287
  C 2.295980 -0.478374 0.479807
  H 2.145311 -1.037622 1.397992
  C 3.212840 -0.953743 -0.422481
  C 4.099033 -0.176357 -1.199575
  C 4.798139 -0.721714 -2.224919
  H 4.646051 -1.744342 -2.531431
  H 5.509959 -0.141583 -2.787833
  H 1.108852 1.139224 1.181708
  H 0.630134 0.420763 -0.340945
  H 2.014100 1.425795 -0.380051
  H 3.281498 -2.029976 -0.542212
  H 4.251721 0.856898 -0.921204
 13
 4.793975
  C 1.587447 0.715987 0.177423
  C 2.269974 -0.520036 0.499528
  H 1.944262 -1.097287 1.356693
  C 3.288933 -0.998516 -0.297836
  C 4.114560 -0.179308 -1.115870
  C 4.693738 -0.649630 -2.256727
  H 4.544830 -1.664279 -2.590346
  H 5.274209 -0.004505 -2.894697
  H 1.163799 1.211862 1.046272
  H 0.735622 0.486271 -0.478365
  H 2.230422 1.333121 -0.454333
  H 3.466424 -2.068772 -0.335432
  H 4.295431 0.841027 -0.803688
