 23
 0.000000
  H 1.409653 0.150220 0.428438
  C 2.488306 0.139963 0.400973
  C 3.237877 0.611232 1.570471
  H 2.609363 0.939816 2.388359
  C 3.067172 -0.327844 -0.763002
  C 4.445299 -0.414427 -0.979874
  C 5.124691 -0.868325 -2.112070
  C 4.616430 -1.387882 -3.408126
  C 3.125470 -1.503776 -3.698572
  C 2.910966 -2.066257 -5.101660
  O 6.439963 -0.864490 -2.102942
  H 3.892749 1.436361 1.279900
  H 3.894169 -0.184131 1.932065
  H 2.396331 -0.641833 -1.543455
  H 5.068101 -0.083283 -0.154963
  H 5.074913 -2.375537 -3.537354
  H 5.075631 -0.763525 -4.183846
  H 2.650108 -0.523668 -3.646688
  H 2.649466 -2.176272 -2.984110
  H 3.353324 -1.418134 -5.854472
  H 1.848163 -2.150719 -5.313342
  H 3.352784 -3.055201 -5.198110
  H 6.822674 -0.530408 -1.268461
 23
 1.570538
  H 1.439974 -0.114151 0.576470
  C 2.505505 0.012136 0.449853
  C 3.218088 0.776191 1.477744
  H 2.541542 1.152148 2.237682
  C 3.072621 -0.555441 -0.670611
  C 4.439930 -0.492798 -0.952779
  C 5.129910 -0.938785 -2.081885
  C 4.618281 -1.413092 -3.394496
  C 3.125594 -1.497443 -3.689088
  C 2.906893 -1.931497 -5.137036
  O 6.445566 -0.845695 -2.091945
  H 3.758942 1.614074 1.035612
  H 3.975298 0.155244 1.959309
  H 2.415688 -1.084004 -1.340957
  H 5.059441 0.005339 -0.213514
  H 5.072115 -2.398326 -3.560944
  H 5.093970 -0.772037 -4.148879
  H 2.654265 -0.524991 -3.542497
  H 2.650268 -2.232232 -3.039535
  H 3.335726 -1.211488 -5.829642
  H 1.844060 -2.011196 -5.350726
  H 3.361595 -2.901074 -5.326352
  H 6.876982 -0.890080 -1.218089
 23
 8.050900
  H 1.439362 -0.220496 0.612801
  C 2.492988 -0.029693 0.458142
  C 3.166754 0.831684 1.431435
  H 2.468706 1.235635 2.158493
  C 3.080029 -0.615448 -0.643736
  C 4.438538 -0.486743 -0.946778
  C 5.135650 -0.928769 -2.065681
  C 4.628279 -1.411721 -3.367140
  C 3.136910 -1.501913 -3.655846
  C 2.908458 -1.879309 -5.117785
  O 6.462362 -0.752756 -2.071913
  H 3.691551 1.651120 0.937119
  H 3.938864 0.269736 1.963872
  H 2.453380 -1.220078 -1.275802
  H 5.053034 0.053169 -0.237292
  H 5.090941 -2.391830 -3.540049
  H 5.102728 -0.769422 -4.122357
  H 2.655576 -0.541915 -3.462843
  H 2.674428 -2.266333 -3.030684
  H 3.311614 -1.120787 -5.784854
  H 1.845101 -1.973674 -5.321273
  H 3.381233 -2.829401 -5.354291
  H 6.975315 -1.280187 -1.437817
 23
 9.665282
  H 1.391379 -0.024739 0.558338
  C 2.462063 0.080979 0.449824
  C 3.181725 0.749892 1.532977
  H 2.504126 1.130181 2.289853
  C 3.026477 -0.423173 -0.703965
  C 4.400710 -0.382202 -0.962153
  C 5.110289 -0.822976 -2.075543
  C 4.637874 -1.360675 -3.369237
  C 3.153409 -1.517358 -3.669141
  C 2.957065 -1.991336 -5.107524
  O 6.433752 -0.631802 -1.999921
  H 3.798797 1.565371 1.152477
  H 3.880795 0.055608 2.006427
  H 2.364431 -0.881697 -1.417774
  H 5.040230 0.024355 -0.186880
  H 5.130306 -2.329698 -3.523997
  H 5.087116 -0.712911 -4.135168
  H 2.640439 -0.563124 -3.545731
  H 2.708240 -2.255835 -3.001366
  H 3.338899 -1.259467 -5.815410
  H 1.900439 -2.138440 -5.315177
  H 3.467644 -2.935560 -5.281848
  H 7.016714 -1.394843 -1.871713
 23
 2.532352
  H 1.369921 0.066422 0.499060
  C 2.447372 0.124631 0.422664
  C 3.171020 0.703211 1.561471
  H 2.491470 1.080103 2.317499
  C 3.017100 -0.348937 -0.738135
  C 4.398552 -0.358013 -0.961737
  C 5.123169 -0.810382 -2.067081
  C 4.666195 -1.368140 -3.356201
  C 3.178326 -1.511513 -3.662120
  C 2.989241 -2.031345 -5.086399
  O 6.427050 -0.638975 -1.931963
  H 3.839237 1.504412 1.239607
  H 3.818717 -0.049125 2.018374
  H 2.351067 -0.737597 -1.490359
  H 5.037672 0.000110 -0.162704
  H 5.135495 -2.353395 -3.485455
  H 5.119184 -0.734764 -4.134141
  H 2.680725 -0.546347 -3.578151
  H 2.716671 -2.218523 -2.974210
  H 3.396343 -1.332846 -5.814744
  H 1.933132 -2.161815 -5.302366
  H 3.479800 -2.992400 -5.221071
  H 7.004521 -1.292238 -2.357505
 23
 0.147550
  H 1.341999 0.016424 0.497249
  C 2.419092 0.090651 0.432403
  C 3.111897 0.769069 1.533890
  H 2.413102 1.162451 2.265485
  C 3.018576 -0.453550 -0.688065
  C 4.399867 -0.453226 -0.884620
  C 5.136807 -0.881660 -1.963274
  C 4.665629 -1.377422 -3.280878
  C 3.178387 -1.501807 -3.593071
  C 2.990887 -1.966738 -5.034383
  O 6.469853 -0.807291 -1.829950
  H 3.739967 1.580336 1.163097
  H 3.795009 0.076886 2.035655
  H 2.373135 -0.906238 -1.419923
  H 4.974671 -0.086070 -0.105323
  H 5.125591 -2.359877 -3.447738
  H 5.107684 -0.713357 -4.035713
  H 2.684116 -0.538781 -3.473462
  H 2.712842 -2.233653 -2.934957
  H 3.409529 -1.248086 -5.734254
  H 1.933512 -2.076306 -5.260244
  H 3.470141 -2.928568 -5.201246
  H 6.879224 -1.301316 -2.729015
 23
 0.032975
  H 1.356422 -0.050791 0.541877
  C 2.429399 0.050444 0.445769
  C 3.121356 0.853379 1.457691
  H 2.428321 1.267208 2.182732
  C 3.022835 -0.566097 -0.629600
  C 4.403830 -0.546899 -0.851451
  C 5.134044 -0.976808 -1.958550
  C 4.669261 -1.398900 -3.301986
  C 3.178805 -1.519120 -3.614854
  C 2.987025 -1.888242 -5.085412
  O 6.436775 -0.925706 -1.774860
  H 3.684447 1.665283 0.995886
  H 3.864775 0.245355 1.982832
  H 2.377087 -1.103132 -1.308779
  H 5.031681 -0.151680 -0.039150
  H 5.140560 -2.364038 -3.526397
  H 5.099944 -0.684682 -4.016276
  H 2.672562 -0.570159 -3.424434
  H 2.723574 -2.301621 -3.002458
  H 3.398090 -1.121744 -5.738669
  H 1.929376 -1.989524 -5.313026
  H 3.471757 -2.834264 -5.318419
  H 6.987505 -1.143897 -2.547511
 23
 0.487348
  H 1.355686 -0.091210 0.557067
  C 2.423249 0.026658 0.441364
  C 3.109750 0.925929 1.378203
  H 2.418580 1.370336 2.088178
  C 3.025786 -0.655698 -0.593634
  C 4.402340 -0.625615 -0.830164
  C 5.134927 -1.045776 -1.942312
  C 4.681793 -1.409507 -3.300579
  C 3.192641 -1.509806 -3.599135
  C 2.977057 -1.815521 -5.077433
  O 6.423281 -1.022978 -1.725344
  H 3.633731 1.720307 0.846207
  H 3.886293 0.380984 1.924329
  H 2.395666 -1.259801 -1.225339
  H 5.049802 -0.247141 -0.045607
  H 5.153573 -2.365425 -3.567260
  H 5.112496 -0.666596 -3.982501
  H 2.696519 -0.570997 -3.359095
  H 2.744314 -2.311747 -3.013142
  H 3.386937 -1.028661 -5.702413
  H 1.914765 -1.897799 -5.294748
  H 3.448753 -2.753259 -5.354707
  H 7.016215 -1.206511 -2.477893
 23
 8.315279
  H 1.359413 -0.272803 0.465047
  C 2.419971 -0.129430 0.309810
  C 3.035866 1.085379 0.867142
  H 2.304396 1.721962 1.354206
  C 3.096512 -1.066172 -0.419147
  C 4.474787 -0.986183 -0.693153
  C 5.203978 -1.226118 -1.854559
  C 4.726684 -1.374341 -3.248320
  C 3.214396 -1.422966 -3.455253
  C 2.871047 -1.509885 -4.939080
  O 6.485962 -1.253702 -1.598219
  H 3.553821 1.660396 0.101798
  H 3.804643 0.799700 1.589087
  H 2.565672 -1.950115 -0.738575
  H 5.201288 -0.720910 0.083711
  H 5.175439 -2.280570 -3.666628
  H 5.129118 -0.531035 -3.823390
  H 2.758577 -0.523977 -3.033320
  H 2.786843 -2.279883 -2.935480
  H 3.231125 -0.635894 -5.476186
  H 1.790442 -1.557559 -5.072044
  H 3.301983 -2.400665 -5.389258
  H 7.157354 -1.213844 -2.307703
 23
 28.562790
  H 1.401017 -0.357379 0.768378
  C 2.425979 -0.159754 0.476061
  C 3.006569 1.147906 0.776321
  H 2.280855 1.799349 1.241455
  C 3.084938 -1.125439 -0.225578
  C 4.401963 -1.010243 -0.698356
  C 5.122820 -1.286805 -1.874351
  C 4.729360 -1.357657 -3.285500
  C 3.215651 -1.339377 -3.491241
  C 2.912641 -1.478202 -4.977209
  O 6.380422 -1.346984 -1.507662
  H 3.390324 1.619115 -0.121714
  H 3.857969 1.034135 1.444257
  H 2.570290 -2.054621 -0.458307
  H 5.363489 -0.923394 -0.117690
  H 5.138247 -2.273740 -3.709762
  H 5.187036 -0.530629 -3.839016
  H 2.775581 -0.414330 -3.132729
  H 2.790519 -2.214046 -3.003431
  H 3.338204 -0.642298 -5.523112
  H 1.846701 -1.509450 -5.164489
  H 3.370750 -2.373554 -5.383332
  H 7.148119 -1.288013 -2.112376
 23
 62.981202
  H 1.449541 -0.249760 1.048528
  C 2.425231 -0.111316 0.607952
  C 3.093342 1.187787 0.800194
  H 2.466270 1.880633 1.351392
  C 2.958135 -1.145334 -0.115193
  C 4.166862 -1.092127 -0.776755
  C 4.921645 -1.297131 -1.832565
  C 4.685455 -1.374896 -3.291520
  C 3.196428 -1.410668 -3.635996
  C 2.986577 -1.482458 -5.143795
  O 6.254814 -1.319109 -1.325466
  H 3.347843 1.624349 -0.166480
  H 4.032630 1.064495 1.339167
  H 2.433406 -2.095431 -0.119218
  H 5.609530 -0.993561 -0.282416
  H 5.167664 -2.279825 -3.673561
  H 5.148253 -0.516529 -3.787195
  H 2.708885 -0.516444 -3.244781
  H 2.733678 -2.279051 -3.165596
  H 3.423649 -0.617663 -5.637780
  H 1.925776 -1.505730 -5.379366
  H 3.442699 -2.379564 -5.556658
  H 7.038339 -1.126238 -1.880819
 23
 52.841148
  H 1.484288 -0.243642 1.175188
  C 2.429245 -0.116622 0.670055
  C 3.075746 1.211454 0.743591
  H 2.458101 1.919248 1.285830
  C 2.928475 -1.163733 -0.058388
  C 4.082448 -1.134609 -0.787221
  C 4.860906 -1.345394 -1.797657
  C 4.668932 -1.371751 -3.266039
  C 3.187454 -1.408192 -3.646117
  C 3.020035 -1.453707 -5.166200
  O 6.268337 -1.374422 -1.293310
  H 3.269976 1.595932 -0.254673
  H 4.034469 1.140599 1.249674
  H 2.398132 -2.106742 -0.024331
  H 5.912173 -1.146597 -0.386448
  H 5.133595 -2.291381 -3.631673
  H 5.167127 -0.530085 -3.751773
  H 2.689237 -0.523630 -3.255159
  H 2.719102 -2.290107 -3.205069
  H 3.463755 -0.566706 -5.632546
  H 1.966212 -1.474038 -5.439227
  H 3.504330 -2.330274 -5.585773
  H 6.985908 -1.041945 -1.866494
 23
 44.265965
  H 1.498627 -0.258310 1.267509
  C 2.407631 -0.121115 0.701209
  C 3.033470 1.221609 0.699447
  H 2.445279 1.934289 1.267144
  C 2.893867 -1.188713 -0.013570
  C 3.996371 -1.171125 -0.793699
  C 4.834814 -1.304802 -1.763444
  C 4.665193 -1.370379 -3.240678
  C 3.194402 -1.393466 -3.647358
  C 3.040563 -1.408502 -5.160716
  O 6.246673 -1.394449 -1.309052
  H 3.139537 1.588277 -0.319336
  H 4.040565 1.180366 1.130261
  H 2.406607 -2.152253 0.113882
  H 6.130665 -1.019239 -0.395509
  H 5.162549 -2.258017 -3.627969
  H 5.131995 -0.492868 -3.690584
  H 2.692707 -0.516752 -3.240349
  H 2.710100 -2.273830 -3.224882
  H 3.503845 -0.530627 -5.606253
  H 1.984036 -1.412716 -5.434336
  H 3.499058 -2.301444 -5.590566
  H 6.986612 -1.254606 -1.925654
 23
 39.769268
  H 1.518244 -0.235624 1.226387
  C 2.421961 -0.115147 0.651874
  C 3.020383 1.235888 0.562076
  H 2.407174 1.972241 1.071914
  C 2.929524 -1.214123 -0.002073
  C 4.035221 -1.218310 -0.780885
  C 4.875503 -1.371046 -1.746807
  C 4.694403 -1.377707 -3.228403
  C 3.217754 -1.349394 -3.623972
  C 3.058468 -1.342322 -5.140551
  O 6.297471 -1.500497 -1.339277
  H 3.138152 1.532777 -0.480816
  H 4.015127 1.249646 1.008599
  H 2.445600 -2.171238 0.152225
  H 6.266360 -1.258414 -0.390593
  H 5.155727 -2.281954 -3.633769
  H 5.191647 -0.509476 -3.669110
  H 2.742347 -0.460991 -3.203959
  H 2.711701 -2.223250 -3.210036
  H 3.536543 -0.467999 -5.577836
  H 2.005689 -1.321754 -5.411627
  H 3.501679 -2.233039 -5.580847
  H 6.969383 -1.127561 -1.947462
 23
 39.405720
  H 1.646747 -0.084397 1.453721
  C 2.469356 -0.056021 0.756946
  C 3.080260 1.254782 0.449704
  H 2.571003 2.058682 0.971313
  C 2.874553 -1.243335 0.187069
  C 3.842236 -1.361831 -0.750280
  C 4.679448 -1.413729 -1.712739
  C 4.656868 -1.402941 -3.191468
  C 3.219068 -1.356161 -3.717243
  C 3.199657 -1.335993 -5.241209
  O 6.189270 -1.589242 -1.237228
  H 3.047882 1.447430 -0.623542
  H 4.131267 1.268986 0.737760
  H 2.394916 -2.162757 0.499333
  H 6.206847 -1.266261 -0.311230
  H 5.142315 -2.310131 -3.558870
  H 5.200817 -0.535525 -3.570504
  H 2.718115 -0.465375 -3.334984
  H 2.669978 -2.227215 -3.357153
  H 3.715751 -0.458913 -5.625148
  H 2.176160 -1.311321 -5.606775
  H 3.680737 -2.223241 -5.646580
  H 6.865179 -1.137608 -1.788054
