 14
 0.000000
  H 1.415448 0.127234 0.363592
  C 2.496153 0.134610 0.385025
  C 3.163958 0.618156 1.589837
  H 2.467120 0.928615 2.360204
  C 3.142492 -0.321148 -0.747397
  C 4.530933 -0.384572 -0.903726
  C 5.131415 -0.848297 -2.059430
  H 4.568470 -1.194590 -2.920059
  O 6.406608 -0.923147 -2.250321
  H 3.824297 1.454089 1.345495
  H 3.822365 -0.155701 1.992552
  H 2.530141 -0.652735 -1.574687
  H 5.164475 -0.058087 -0.089482
  H 6.958423 -0.618579 -1.498654
 14
 10.411053
  H 1.400471 0.133949 0.379834
  C 2.481755 0.138646 0.394794
  C 3.152447 0.619774 1.594075
  H 2.455460 0.930280 2.364654
  C 3.121471 -0.319102 -0.742578
  C 4.512919 -0.384443 -0.903689
  C 5.089570 -0.846485 -2.054468
  H 4.527876 -1.190555 -2.908713
  O 6.520599 -0.933952 -2.277318
  H 3.814339 1.455098 1.349681
  H 3.812259 -0.153903 1.996189
  H 2.505667 -0.649960 -1.567994
  H 5.153283 -0.059408 -0.093574
  H 7.058735 -0.629221 -1.526210
 14
 30.873063
  H 1.395545 0.139033 0.392336
  C 2.477451 0.140659 0.399515
  C 3.151308 0.620327 1.595589
  H 2.457467 0.931475 2.368248
  C 3.106285 -0.319764 -0.744717
  C 4.495807 -0.384643 -0.904920
  C 5.024250 -0.847635 -2.057030
  H 4.514940 -1.199286 -2.929298
  O 6.616272 -0.936075 -2.281953
  H 3.826198 1.445968 1.351262
  H 3.824258 -0.146506 1.990745
  H 2.490925 -0.650172 -1.568721
  H 5.139844 -0.061930 -0.101278
  H 7.064689 -0.615257 -1.491806
 14
 53.420355
  H 1.373728 0.149817 0.420298
  C 2.456239 0.147353 0.416655
  C 3.138481 0.622346 1.600356
  H 2.450096 0.934957 2.376941
  C 3.072304 -0.316076 -0.735331
  C 4.481504 -0.386515 -0.909687
  C 4.985084 -0.850468 -2.064771
  H 4.495980 -1.206898 -2.949821
  O 6.735574 -0.945770 -2.306032
  H 3.816533 1.446838 1.352684
  H 3.815048 -0.145505 1.992283
  H 2.447499 -0.644861 -1.555112
  H 5.136438 -0.065515 -0.109909
  H 7.153891 -0.617353 -1.495598
 14
 74.346790
  H 1.358220 0.161671 0.449844
  C 2.441585 0.153160 0.431634
  C 3.141787 0.624007 1.603956
  H 2.464114 0.940558 2.389162
  C 3.038584 -0.317108 -0.736658
  C 4.456233 -0.394458 -0.927373
  C 4.924152 -0.855830 -2.078225
  H 4.515692 -1.222348 -2.990955
  O 6.839308 -0.939537 -2.292843
  H 3.825102 1.443719 1.351900
  H 3.823614 -0.143015 1.990146
  H 2.403413 -0.643044 -1.550133
  H 5.117762 -0.076015 -0.132494
  H 7.173867 -0.601988 -1.456836
 14
 93.209936
  H 1.344983 0.168294 0.467599
  C 2.427053 0.155510 0.438015
  C 3.140349 0.621910 1.598345
  H 2.473092 0.941146 2.390497
  C 3.001914 -0.312292 -0.724365
  C 4.420817 -0.394440 -0.927280
  C 4.873384 -0.855762 -2.078895
  H 4.495335 -1.227575 -3.005803
  O 6.948767 -0.940290 -2.294920
  H 3.825812 1.438149 1.339400
  H 3.824935 -0.146845 1.977207
  H 2.358560 -0.635640 -1.531300
  H 5.088275 -0.077316 -0.134875
  H 7.260867 -0.597359 -1.443640
 14
 108.662857
  H 1.320473 0.177111 0.491885
  C 2.403974 0.160295 0.450612
  C 3.136539 0.627929 1.613101
  H 2.478249 0.949778 2.412873
  C 2.965428 -0.313805 -0.728277
  C 4.389550 -0.400941 -0.944824
  C 4.825981 -0.860759 -2.092846
  H 4.494951 -1.238512 -3.034702
  O 7.063295 -0.940004 -2.293152
  H 3.824095 1.441408 1.349546
  H 3.824173 -0.141276 1.986371
  H 2.314800 -0.635175 -1.529399
  H 5.059515 -0.084798 -0.155375
  H 7.338669 -0.596160 -1.437166
 14
 118.863805
  H 1.321129 0.195993 0.553817
  C 2.400811 0.162915 0.463781
  C 3.185865 0.619693 1.587628
  H 2.568285 0.950897 2.414365
  C 2.885966 -0.315568 -0.727613
  C 4.294525 -0.418074 -0.988302
  C 4.731005 -0.867411 -2.120926
  H 4.590645 -1.253006 -3.093275
  O 7.137130 -0.895718 -2.181738
  H 3.863970 1.427663 1.291347
  H 3.870504 -0.162716 1.933365
  H 2.212000 -0.629765 -1.508660
  H 4.952101 -0.099669 -0.189100
  H 7.374343 -0.561469 -1.324506
 14
 125.499103
  H 1.295183 0.207659 0.592103
  C 2.372365 0.163248 0.464345
  C 3.214762 0.615653 1.578237
  H 2.627308 0.952209 2.428185
  C 2.797176 -0.309649 -0.717557
  C 4.234886 -0.430034 -1.030125
  C 4.670794 -0.874858 -2.143908
  H 4.655824 -1.272951 -3.140075
  O 7.237086 -0.873585 -2.117373
  H 3.885381 1.423829 1.261876
  H 3.896329 -0.179165 1.904304
  H 2.101109 -0.618128 -1.475435
  H 4.897187 -0.106031 -0.224289
  H 7.474216 -0.541534 -1.262033
 14
 127.956317
  H 1.288401 0.236182 0.681256
  C 2.353256 0.168344 0.485405
  C 3.274451 0.603519 1.546795
  H 2.747563 0.950087 2.429058
  C 2.698064 -0.313493 -0.720197
  C 4.110022 -0.454281 -1.108741
  C 4.589080 -0.886287 -2.192847
  H 4.774934 -1.275416 -3.166318
  O 7.306598 -0.827200 -1.988474
  H 3.922567 1.408486 1.190293
  H 3.942510 -0.210962 1.838005
  H 1.974755 -0.615964 -1.448681
  H 4.758650 -0.118438 -0.292371
  H 7.605506 -0.508064 -1.132210
 14
 129.369121
  H 1.280523 0.248768 0.716106
  C 2.339913 0.171582 0.495158
  C 3.287305 0.597952 1.532554
  H 2.783137 0.949371 2.428332
  C 2.654763 -0.312798 -0.717607
  C 4.056358 -0.463608 -1.134241
  C 4.542349 -0.891124 -2.209709
  H 4.788566 -1.276233 -3.175914
  O 7.414061 -0.811077 -1.942863
  H 3.930983 1.401516 1.159986
  H 3.952973 -0.225752 1.810187
  H 1.913028 -0.613657 -1.440829
  H 4.709246 -0.126162 -0.314851
  H 7.730071 -0.497514 -1.092933
 14
 129.845663
  H 1.270257 0.261100 0.743420
  C 2.323952 0.173559 0.499192
  C 3.301567 0.591615 1.518001
  H 2.821993 0.947762 2.424799
  C 2.609365 -0.311860 -0.716003
  C 4.002451 -0.474569 -1.160264
  C 4.497879 -0.898864 -2.229149
  H 4.796148 -1.277536 -3.180052
  O 7.522675 -0.793486 -1.897693
  H 3.941051 1.391145 1.131218
  H 3.961628 -0.240129 1.782255
  H 1.858741 -0.605828 -1.424723
  H 4.659388 -0.137392 -0.339848
  H 7.858423 -0.482637 -1.053197
 14
 129.931311
  H 1.265370 0.275246 0.775038
  C 2.311262 0.176384 0.505223
  C 3.319012 0.583775 1.499474
  H 2.866249 0.945334 2.418471
  C 2.565462 -0.311023 -0.714894
  C 3.946313 -0.486826 -1.188093
  C 4.451105 -0.907654 -2.249840
  H 4.807907 -1.279255 -3.185589
  O 7.626363 -0.771894 -1.843014
  H 3.954006 1.379096 1.096778
  H 3.973030 -0.257246 1.749403
  H 1.799203 -0.599652 -1.413641
  H 4.608504 -0.150658 -0.367109
  H 7.981611 -0.463719 -1.006159
 14
 129.807988
  H 1.259926 0.286425 0.801229
  C 2.298768 0.177868 0.508433
  C 3.334178 0.576052 1.480432
  H 2.905970 0.942022 2.409705
  C 2.525740 -0.310813 -0.715374
  C 3.894548 -0.498648 -1.214729
  C 4.407394 -0.917094 -2.271911
  H 4.813533 -1.280326 -3.189445
  O 7.732415 -0.752225 -1.792467
  H 3.964850 1.368011 1.063653
  H 3.983228 -0.272949 1.717806
  H 1.748252 -0.593185 -1.401733
  H 4.564534 -0.164224 -0.394078
  H 8.106251 -0.445584 -0.962370
 14
 126.796296
  H 1.282364 0.319519 0.914445
  C 2.286569 0.184103 0.538337
  C 3.406657 0.556901 1.412602
  H 3.066227 0.932204 2.372922
  C 2.434155 -0.317067 -0.707455
  C 3.709290 -0.535716 -1.313150
  C 4.395432 -0.924695 -2.285369
  H 5.070205 -1.197933 -3.065856
  O 7.454431 -0.643342 -1.493339
  H 4.018336 1.333076 0.945047
  H 4.055844 -0.303176 1.596803
  H 1.591238 -0.583658 -1.331268
  H 4.559708 -0.257901 -0.614804
  H 8.209131 -0.446985 -0.929766
