 20
 0.000000
  C 1.007515 -0.071293 0.048102
  C 2.503755 -0.082232 0.026628
  C 3.219857 -0.594920 -0.979867
  C 4.657458 -0.606107 -1.001827
  C 5.377364 -1.121428 -2.013490
  C 6.815160 -1.131702 -2.033653
  C 7.534123 -1.643160 -3.037738
  C 9.024198 -1.661287 -3.073317
  H 0.644674 0.394765 0.963047
  H 0.612200 -1.086118 0.008702
  H 0.612199 0.493515 -0.795949
  H 3.004196 0.353150 0.881358
  H 2.708745 -1.028376 -1.830804
  H 5.162071 -0.171225 -0.148085
  H 4.872677 -1.556241 -2.867099
  H 7.321764 -0.697186 -1.180625
  H 7.036637 -2.079695 -3.894714
  H 9.455478 -1.207660 -2.182776
  H 9.384666 -1.115164 -3.946418
  H 9.384664 -2.688619 -3.144925
 20
 0.798707
  C 1.008991 -0.031948 0.079075
  C 2.500222 -0.078203 0.006650
  C 3.178941 -0.629506 -1.002726
  C 4.606740 -0.680697 -1.071840
  C 5.329334 -1.219754 -2.068166
  C 6.768490 -1.205966 -2.032065
  C 7.537550 -1.629245 -3.038657
  C 9.025792 -1.617266 -3.048134
  H 0.676372 0.470763 0.984487
  H 0.590567 -1.038896 0.076691
  H 0.596369 0.502151 -0.777689
  H 3.044441 0.364735 0.830348
  H 2.640858 -1.073697 -1.831066
  H 5.206771 -0.255308 -0.278596
  H 4.860067 -1.665981 -2.934807
  H 7.234593 -0.797145 -1.142693
  H 7.075587 -2.031119 -3.933228
  H 9.423534 -1.191435 -2.128707
  H 9.394019 -1.032509 -3.892998
  H 9.409703 -2.633530 -3.157633
 20
 1.381052
  C 1.031398 0.017841 0.077605
  C 2.519599 -0.051240 0.010952
  C 3.197213 -0.638408 -0.988419
  C 4.618001 -0.719917 -1.050050
  C 5.327093 -1.296960 -2.039732
  C 6.767781 -1.291499 -2.025668
  C 7.545278 -1.602744 -3.060878
  C 9.034315 -1.557273 -3.036431
  H 0.704786 0.564432 0.956962
  H 0.603676 -0.984163 0.114209
  H 0.628989 0.511004 -0.808485
  H 3.073565 0.396180 0.824406
  H 2.658401 -1.093374 -1.812126
  H 5.217111 -0.283564 -0.263196
  H 4.835183 -1.746448 -2.887864
  H 7.229269 -0.950962 -1.106430
  H 7.097850 -1.921550 -3.994203
  H 9.396275 -1.181840 -2.081024
  H 9.407351 -0.916050 -3.833079
  H 9.445463 -2.554967 -3.201025
 20
 1.530811
  C 1.037792 0.058534 0.041273
  C 2.522120 -0.040038 -0.001829
  C 3.198383 -0.668398 -0.966710
  C 4.634847 -0.765061 -1.010806
  C 5.333583 -1.376304 -1.983400
  C 6.773415 -1.403735 -1.982587
  C 7.536124 -1.562413 -3.069134
  C 9.035231 -1.503416 -3.066941
  H 0.709354 0.678522 0.869411
  H 0.594287 -0.931009 0.155173
  H 0.652272 0.484992 -0.889144
  H 3.063584 0.425888 0.804952
  H 2.661501 -1.139920 -1.779330
  H 5.193661 -0.289798 -0.216730
  H 4.830901 -1.831957 -2.814699
  H 7.249016 -1.196496 -1.026063
  H 7.075271 -1.748575 -4.026188
  H 9.416759 -1.215189 -2.087583
  H 9.386004 -0.790699 -3.804876
  H 9.453045 -2.477319 -3.331386
 20
 2.377441
  C 1.045711 0.083005 0.007336
  C 2.535341 -0.032156 -0.012444
  C 3.218349 -0.682510 -0.956043
  C 4.654795 -0.800632 -0.970527
  C 5.344978 -1.433918 -1.930008
  C 6.787282 -1.498344 -1.956331
  C 7.527960 -1.499064 -3.067410
  C 9.018950 -1.469926 -3.078781
  H 0.712919 0.740581 0.804849
  H 0.590172 -0.895893 0.157604
  H 0.677991 0.471249 -0.940967
  H 3.067456 0.442536 0.799950
  H 2.684947 -1.159062 -1.771080
  H 5.179365 -0.309776 -0.159464
  H 4.817061 -1.871446 -2.767636
  H 7.278863 -1.425982 -0.991315
  H 7.051471 -1.536664 -4.041151
  H 9.415415 -1.309252 -2.078584
  H 9.376978 -0.673848 -3.735443
  H 9.413977 -2.411347 -3.461872
 20
 3.660088
  C 1.066865 0.107558 -0.015995
  C 2.550355 -0.035702 -0.038412
  C 3.216689 -0.727352 -0.962486
  C 4.651818 -0.870698 -0.979090
  C 5.323918 -1.542652 -1.925447
  C 6.769245 -1.631941 -1.961799
  C 7.510543 -1.452403 -3.059781
  C 9.005807 -1.426184 -3.072707
  H 0.752486 0.813858 0.744684
  H 0.595995 -0.851964 0.192904
  H 0.698820 0.448092 -0.981629
  H 3.095399 0.453250 0.755943
  H 2.672521 -1.218994 -1.760387
  H 5.186174 -0.363215 -0.185022
  H 4.782707 -1.984109 -2.751300
  H 7.259032 -1.708008 -0.998542
  H 7.034998 -1.337869 -4.026511
  H 9.406290 -1.381748 -2.061871
  H 9.362516 -0.563709 -3.633642
  H 9.398133 -2.320619 -3.562069
 20
 7.472690
  C 1.184109 0.236469 0.005386
  C 2.658893 0.022874 -0.114492
  C 3.222476 -0.802769 -0.997613
  C 4.640836 -1.012608 -1.108815
  C 5.243250 -1.801367 -2.004101
  C 6.707101 -1.856794 -2.017787
  C 7.449007 -1.323748 -2.976624
  C 8.938588 -1.220510 -2.924973
  H 0.961114 1.067800 0.668622
  H 0.701407 -0.657091 0.403224
  H 0.742858 0.439405 -0.969698
  H 3.288127 0.572642 0.572725
  H 2.600900 -1.358562 -1.689126
  H 5.299578 -0.462311 -0.447632
  H 4.689482 -2.324692 -2.771355
  H 7.178680 -2.173254 -1.094166
  H 6.991571 -0.977649 -3.894591
  H 9.302850 -1.340690 -1.907399
  H 9.262135 -0.252837 -3.304646
  H 9.396715 -1.989615 -3.548714
 20
 7.305273
  C 1.183234 0.247649 0.009195
  C 2.657651 0.028852 -0.105389
  C 3.222785 -0.781989 -1.001135
  C 4.640546 -0.997049 -1.107643
  C 5.246079 -1.771539 -2.013045
  C 6.708836 -1.830929 -2.013726
  C 7.457357 -1.313773 -2.976122
  C 8.947524 -1.222835 -2.921623
  H 0.960096 1.065722 0.688651
  H 0.693147 -0.651687 0.384319
  H 0.749709 0.473763 -0.964266
  H 3.285466 0.561517 0.596431
  H 2.602800 -1.320740 -1.707401
  H 5.299204 -0.464799 -0.431752
  H 4.696282 -2.282597 -2.791243
  H 7.173770 -2.147958 -1.087108
  H 7.002540 -0.970183 -3.896296
  H 9.308553 -1.344985 -1.903156
  H 9.280182 -0.258349 -3.301690
  H 9.400265 -1.996409 -3.543749
