 19
 0.000000
  H 1.526474 0.044351 0.281197
  C 2.599826 0.054619 0.169455
  C 3.396450 -0.018260 1.438943
  C 2.521177 -0.074752 2.688603
  C 3.360796 -0.153387 3.957804
  C 3.141427 0.120345 -1.048037
  H 2.530343 0.144065 -1.938410
  C 4.564939 0.139416 -1.310589
  C 5.081396 0.198429 -2.533594
  H 6.139783 0.211854 -2.709435
  H 4.057635 0.851018 1.507676
  H 4.033812 -0.908600 1.404512
  H 1.867134 -0.948265 2.634355
  H 1.889587 0.815892 2.728216
  H 3.985597 -1.044137 3.948106
  H 2.722879 -0.192528 4.837542
  H 4.007924 0.717227 4.042749
  H 5.228467 0.103824 -0.458306
  H 4.461834 0.235672 -3.411862
 19
 -0.093083
  H 1.566711 0.329847 0.301332
  C 2.640063 0.250435 0.193976
  C 3.418015 0.187243 1.473758
  C 2.531724 -0.146458 2.672473
  C 3.337212 -0.222684 3.963588
  C 3.168495 0.187937 -1.028750
  H 2.522771 0.193176 -1.897711
  C 4.581478 0.112291 -1.329829
  C 5.059230 0.020911 -2.567320
  H 6.114954 -0.027715 -2.771682
  H 3.915528 1.146168 1.652834
  H 4.193534 -0.576632 1.374620
  H 2.035828 -1.104000 2.497089
  H 1.756814 0.617188 2.773616
  H 4.103673 -0.991605 3.890862
  H 2.691071 -0.461928 4.805048
  H 3.825555 0.728488 4.165984
  H 5.267275 0.145673 -0.494750
  H 4.406650 -0.007617 -3.424950
 19
 0.512410
  H 1.570295 0.610123 0.302164
  C 2.635629 0.445474 0.208919
  C 3.403686 0.395851 1.494003
  C 2.558479 -0.204794 2.619120
  C 3.348907 -0.315984 3.916865
  C 3.160747 0.229491 -0.996868
  H 2.523615 0.161649 -1.870440
  C 4.570881 0.103980 -1.301023
  C 5.028410 -0.176458 -2.517403
  H 6.081467 -0.242599 -2.730884
  H 3.730378 1.397760 1.787344
  H 4.280050 -0.234377 1.333058
  H 2.213494 -1.195997 2.316290
  H 1.676675 0.419092 2.783809
  H 4.220031 -0.953342 3.780042
  H 2.732880 -0.742476 4.705182
  H 3.690750 0.664874 4.241119
  H 5.272883 0.277455 -0.497499
  H 4.361362 -0.347972 -3.346781
 19
 2.307468
  H 1.544308 0.853809 0.266462
  C 2.594089 0.597290 0.211376
  C 3.348549 0.605148 1.503281
  C 2.601694 -0.242153 2.541987
  C 3.405378 -0.384490 3.828230
  C 3.128864 0.220223 -0.951403
  H 2.513493 0.021111 -1.821094
  C 4.544787 0.112300 -1.243195
  C 5.015201 -0.354266 -2.395865
  H 6.068766 -0.375523 -2.615677
  H 3.477230 1.614971 1.895291
  H 4.310539 0.125438 1.313332
  H 2.405745 -1.230598 2.120767
  H 1.637804 0.221397 2.766160
  H 4.355537 -0.877173 3.632897
  H 2.856700 -0.975495 4.558184
  H 3.609485 0.592580 4.261188
  H 5.239184 0.474644 -0.497853
  H 4.358561 -0.722922 -3.167372
 19
 8.221919
  H 1.507189 1.106109 0.183769
  C 2.518578 0.727446 0.205100
  C 3.265702 0.780066 1.501201
  C 2.650815 -0.270434 2.446322
  C 3.491503 -0.439679 3.704610
  C 3.076834 0.173392 -0.876174
  H 2.489968 -0.194548 -1.712720
  C 4.499034 0.159353 -1.181153
  C 5.021723 -0.501133 -2.211859
  H 6.063669 -0.442763 -2.451932
  H 3.243801 1.754911 1.988165
  H 4.264640 0.404809 1.260737
  H 2.576823 -1.224409 1.920083
  H 1.639835 0.036218 2.727740
  H 4.492817 -0.784782 3.453425
  H 3.035654 -1.165721 4.372240
  H 3.578714 0.504392 4.234051
  H 5.151562 0.752359 -0.548971
  H 4.418822 -1.123630 -2.850100
 19
 20.098210
  H 1.464657 1.094225 0.041393
  C 2.446902 0.671252 0.170329
  C 3.177762 0.799564 1.475263
  C 2.597562 -0.216258 2.481069
  C 3.563826 -0.453932 3.632790
  C 3.094133 0.012181 -0.803905
  H 2.566098 -0.502342 -1.603072
  C 4.489936 0.178744 -1.128933
  C 5.078818 -0.416087 -2.166125
  H 6.110237 -0.223926 -2.419098
  H 3.180984 1.791345 1.919026
  H 4.113724 0.306864 1.175825
  H 2.387529 -1.157710 1.971241
  H 1.648073 0.160867 2.875719
  H 4.474592 -0.930715 3.275091
  H 3.110985 -1.098158 4.381803
  H 3.834402 0.485780 4.106223
  H 5.052485 0.888223 -0.537097
  H 4.575039 -1.173573 -2.746927
 19
 36.044359
  H 1.405438 1.259246 -0.094617
  C 2.339209 0.759248 0.113221
  C 3.038188 0.819385 1.439911
  C 2.606517 -0.259572 2.461246
  C 3.672860 -0.450636 3.529688
  C 3.040213 0.058507 -0.805171
  H 2.556234 -0.513808 -1.603341
  C 4.457533 0.219183 -1.068974
  C 5.124461 -0.485079 -1.980299
  H 6.148197 -0.268791 -2.224452
  H 3.178227 1.783085 1.925814
  H 3.876170 0.189617 1.045729
  H 2.391207 -1.197946 1.954425
  H 1.672672 0.048372 2.955600
  H 4.605561 -0.804768 3.092731
  H 3.339756 -1.183189 4.265421
  H 3.866652 0.486951 4.047247
  H 4.960978 1.028654 -0.547333
  H 4.676115 -1.313625 -2.492066
 19
 61.528835
  H 1.506814 1.277923 -0.200629
  C 2.399945 0.757342 0.119421
  C 3.052817 0.845689 1.458705
  C 2.559604 -0.205183 2.482397
  C 3.630784 -0.499668 3.520098
  C 3.154238 -0.114111 -0.625309
  H 2.666458 -0.793616 -1.329765
  C 4.479705 0.257693 -1.111168
  C 5.123710 -0.397001 -2.075813
  H 6.067361 -0.047840 -2.458279
  H 3.091583 1.826241 1.923957
  H 3.854385 0.104672 1.015980
  H 2.275840 -1.121334 1.971087
  H 1.666669 0.177746 2.987337
  H 4.502109 -0.953204 3.047587
  H 3.254681 -1.199641 4.268419
  H 3.954241 0.417337 4.015987
  H 4.967505 1.093492 -0.605075
  H 4.740426 -1.304622 -2.498772
 19
 81.977836
  H 1.553089 1.472274 -0.269662
  C 2.355051 0.871717 0.132863
  C 2.871704 0.881495 1.442410
  C 2.566697 -0.235376 2.442425
  C 3.715935 -0.482253 3.414391
  C 3.134172 -0.096765 -0.563226
  H 2.650018 -0.786711 -1.261898
  C 4.498336 0.227141 -1.007394
  C 5.145811 -0.441354 -1.953822
  H 6.128930 -0.150191 -2.277767
  H 2.920235 1.837493 1.977645
  H 3.710234 -0.103185 0.758244
  H 2.316208 -1.163996 1.923848
  H 1.683051 0.072461 3.014155
  H 4.597023 -0.845751 2.887101
  H 3.432086 -1.222219 4.159574
  H 3.981985 0.437744 3.929932
  H 4.967897 1.078162 -0.528567
  H 4.712794 -1.298444 -2.442773
 19
 63.479632
  H 1.691810 1.601032 -0.248572
  C 2.389350 0.934413 0.203899
  C 2.735026 0.929864 1.524530
  C 2.535760 -0.261490 2.476457
  C 3.731348 -0.445112 3.399450
  C 3.179374 -0.134112 -0.498083
  H 2.627036 -0.728418 -1.198787
  C 4.542426 0.207165 -1.020681
  C 5.152803 -0.464787 -1.988481
  H 6.146815 -0.213905 -2.311160
  H 2.678370 1.840133 2.120951
  H 3.699550 -0.247777 0.517717
  H 2.379531 -1.185182 1.910505
  H 1.621544 -0.002465 3.011800
  H 4.612353 -0.740338 2.840888
  H 3.516355 -1.215863 4.126496
  H 3.966327 0.482256 3.927699
  H 5.038878 1.037737 -0.523052
  H 4.701903 -1.328367 -2.448990
 19
 45.952697
  H 1.821265 1.552649 -0.319936
  C 2.491599 0.890260 0.193454
  C 2.768424 0.911117 1.507744
  C 2.535290 -0.214882 2.478124
  C 3.669099 -0.436401 3.477140
  C 3.227753 -0.232540 -0.481667
  H 2.686904 -0.899324 -1.140644
  C 4.548820 0.194644 -1.059584
  C 5.113369 -0.360161 -2.103879
  H 6.064879 -0.024898 -2.480606
  H 2.827582 1.852651 2.060104
  H 3.685450 -0.552590 0.493118
  H 2.322635 -1.152285 1.957322
  H 1.630095 0.063776 3.025115
  H 4.578951 -0.749076 2.969777
  H 3.394376 -1.197672 4.204450
  H 3.877391 0.486199 4.019091
  H 5.026555 1.022503 -0.553184
  H 4.664253 -1.196731 -2.615894
 19
 29.440267
  H 2.011155 1.584198 -0.353311
  C 2.602756 0.876949 0.204754
  C 2.761248 0.904915 1.530774
  C 2.540631 -0.236232 2.487988
  C 3.635935 -0.383331 3.545576
  C 3.270379 -0.296914 -0.466738
  H 2.683757 -0.859458 -1.183273
  C 4.583126 0.130985 -1.071863
  C 5.060669 -0.320881 -2.216068
  H 6.011336 0.003073 -2.604602
  H 2.693266 1.846277 2.080094
  H 3.661102 -0.763245 0.452051
  H 2.423667 -1.183923 1.957937
  H 1.593189 -0.012170 2.984765
  H 4.586970 -0.633308 3.079518
  H 3.383132 -1.169604 4.253628
  H 3.759407 0.547268 4.095784
  H 5.138316 0.858463 -0.494219
  H 4.525915 -1.045176 -2.808884
 19
 15.288178
  H 2.273325 1.654693 -0.370314
  C 2.688678 0.860648 0.231809
  C 2.692486 0.900419 1.558168
  C 2.539131 -0.259272 2.504469
  C 3.629530 -0.316718 3.575134
  C 3.282306 -0.334236 -0.465310
  H 2.651965 -0.791516 -1.222385
  C 4.601112 0.075147 -1.064815
  C 5.025805 -0.285846 -2.260821
  H 5.988561 0.013197 -2.639497
  H 2.556785 1.830677 2.104763
  H 3.574083 -0.980675 0.370510
  H 2.499086 -1.213078 1.976768
  H 1.570986 -0.111634 2.991426
  H 4.601212 -0.494980 3.119145
  H 3.429711 -1.116883 4.284454
  H 3.676290 0.623272 4.121146
  H 5.214844 0.699697 -0.428816
  H 4.430059 -0.905029 -2.911921
 19
 8.100379
  H 2.478446 1.665739 -0.380310
  C 2.731651 0.814623 0.239052
  C 2.623377 0.882585 1.556206
  C 2.549612 -0.274029 2.509709
  C 3.650769 -0.217586 3.572095
  C 3.249858 -0.410597 -0.487595
  H 2.601870 -0.754013 -1.291394
  C 4.612253 -0.056008 -1.008515
  C 5.004669 -0.205453 -2.256245
  H 5.997607 0.047311 -2.576003
  H 2.476887 1.824478 2.072367
  H 3.373341 -1.175326 0.294318
  H 2.596032 -1.232853 1.993714
  H 1.573337 -0.218176 3.003149
  H 4.629015 -0.310108 3.110690
  H 3.528671 -1.022001 4.291780
  H 3.618185 0.732416 4.106706
  H 5.289199 0.332095 -0.261288
  H 4.341176 -0.575211 -3.014524
 19
 3.663464
  H 2.813667 1.697117 -0.274770
  C 2.846239 0.779251 0.298927
  C 2.530700 0.815187 1.584318
  C 2.523024 -0.317973 2.562574
  C 3.605716 -0.122404 3.625555
  C 3.298827 -0.412891 -0.489217
  H 2.598728 -0.609054 -1.304969
  C 4.664059 -0.154192 -1.053771
  C 4.959994 -0.169714 -2.339395
  H 5.956632 0.022894 -2.699979
  H 2.290957 1.770559 2.036107
  H 3.350226 -1.293711 0.154434
  H 2.673194 -1.276049 2.064529
  H 1.544757 -0.348802 3.052725
  H 4.590824 -0.121095 3.164830
  H 3.568012 -0.922682 4.360921
  H 3.468258 0.825555 4.140253
  H 5.426569 0.067257 -0.318723
  H 4.215570 -0.381367 -3.090438
