 19
 0.000000
  H 1.510219 0.171321 0.477928
  C 2.591880 0.150219 0.425060
  C 3.319614 0.620804 1.595358
  C 2.463837 1.086530 2.754780
  C 3.295317 1.561699 3.937511
  C 3.162684 -0.317846 -0.739966
  C 4.551790 -0.417154 -0.987635
  C 5.031108 -0.888978 -2.164320
  H 4.382346 -1.209389 -2.963474
  H 6.092696 -0.959086 -2.339091
  H 4.013424 1.422282 1.296375
  H 4.013843 -0.164366 1.933843
  H 1.808428 0.274077 3.080825
  H 1.808280 1.898754 2.428179
  H 3.930496 0.765305 4.318768
  H 2.647910 1.886913 4.747214
  H 3.930327 2.400644 3.661835
  H 2.506926 -0.638782 -1.539238
  H 5.256564 -0.112591 -0.227990
 19
 0.442199
  H 1.504890 0.146756 0.480705
  C 2.587455 0.095693 0.443176
  C 3.314581 0.567849 1.612729
  C 2.462146 1.115928 2.740316
  C 3.297692 1.588900 3.921754
  C 3.157184 -0.403538 -0.707526
  C 4.547918 -0.463834 -0.972220
  C 5.035733 -0.800358 -2.190809
  H 4.387354 -0.936677 -3.041093
  H 6.091969 -0.920367 -2.357294
  H 4.053794 1.324520 1.300911
  H 3.964274 -0.237425 1.992809
  H 1.762623 0.348202 3.081987
  H 1.852984 1.945383 2.375065
  H 3.886916 0.775990 4.338306
  H 2.654887 1.970859 4.709258
  H 3.976352 2.387005 3.629776
  H 2.499750 -0.789589 -1.475350
  H 5.240493 -0.186170 -0.189683
 19
 1.874757
  H 1.499052 0.148926 0.485716
  C 2.578091 0.065722 0.452788
  C 3.313986 0.543970 1.616426
  C 2.464742 1.131433 2.729039
  C 3.306945 1.603126 3.907494
  C 3.134723 -0.454386 -0.693564
  C 4.523705 -0.529842 -0.960827
  C 5.041431 -0.753110 -2.192470
  H 4.448202 -0.697246 -3.091239
  H 6.092742 -0.953620 -2.322832
  H 4.057787 1.288043 1.290338
  H 3.942846 -0.264977 2.016252
  H 1.749911 0.382410 3.080012
  H 1.877583 1.970449 2.346674
  H 3.898284 0.789135 4.319244
  H 2.668040 1.984420 4.699321
  H 3.983456 2.401855 3.612933
  H 2.471473 -0.854302 -1.448845
  H 5.212339 -0.276640 -0.163199
 19
 4.384663
  H 1.482973 0.152226 0.493760
  C 2.562427 0.055581 0.451266
  C 3.313776 0.547386 1.602081
  C 2.468418 1.137189 2.719457
  C 3.323121 1.609970 3.889262
  C 3.099659 -0.489267 -0.690250
  C 4.484822 -0.610380 -0.951993
  C 5.060520 -0.709719 -2.174020
  H 4.565648 -0.436069 -3.093667
  H 6.082932 -1.041162 -2.270573
  H 4.037713 1.303531 1.260642
  H 3.947850 -0.256000 2.002967
  H 1.760225 0.386388 3.077955
  H 1.881134 1.977413 2.339567
  H 3.932162 0.798920 4.283871
  H 2.692091 1.975439 4.694857
  H 3.983809 2.420350 3.590463
  H 2.425213 -0.900065 -1.430109
  H 5.165281 -0.403773 -0.130998
 19
 6.814845
  H 1.481720 0.173559 0.492923
  C 2.550657 0.039634 0.453118
  C 3.314984 0.554309 1.585677
  C 2.472330 1.126478 2.720346
  C 3.334974 1.622469 3.872932
  C 3.074001 -0.484962 -0.703825
  C 4.449920 -0.699933 -0.944551
  C 5.083769 -0.691419 -2.142308
  H 4.663123 -0.279514 -3.047553
  H 6.070251 -1.124321 -2.240617
  H 4.000986 1.333443 1.223927
  H 3.981987 -0.228155 1.978969
  H 1.794472 0.358169 3.091927
  H 1.856159 1.948401 2.356243
  H 4.001477 0.837194 4.228190
  H 2.707797 1.932666 4.709789
  H 3.938814 2.477476 3.573106
  H 2.390343 -0.815761 -1.469624
  H 5.120629 -0.571436 -0.098437
 19
 10.944773
  H 1.445579 0.161013 0.515508
  C 2.524847 0.040303 0.451777
  C 3.307985 0.554879 1.570239
  C 2.477049 1.150620 2.704003
  C 3.357430 1.596549 3.867606
  C 3.029047 -0.538925 -0.685851
  C 4.398917 -0.687585 -0.967901
  C 5.094745 -0.669998 -2.132494
  H 4.804149 -0.151904 -3.040765
  H 6.074733 -1.124008 -2.182280
  H 4.005903 1.318444 1.207691
  H 3.947602 -0.242712 1.970893
  H 1.761398 0.403162 3.064365
  H 1.907422 2.006086 2.340270
  H 3.938125 0.766670 4.257555
  H 2.747562 1.983668 4.675390
  H 4.045317 2.384677 3.560943
  H 2.338192 -0.971916 -1.404361
  H 5.110333 -0.481714 -0.160398
 19
 15.999606
  H 1.444890 0.206751 0.509960
  C 2.516603 0.111525 0.427382
  C 3.313446 0.590454 1.560147
  C 2.474311 1.090478 2.732796
  C 3.360551 1.603746 3.868091
  C 3.007208 -0.497121 -0.699710
  C 4.361697 -0.683857 -0.994376
  C 5.118036 -0.712067 -2.123774
  H 4.967859 -0.127041 -3.015236
  H 6.010970 -1.330990 -2.152024
  H 3.980523 1.395943 1.233748
  H 3.966436 -0.219085 1.906682
  H 1.838884 0.283373 3.104222
  H 1.828794 1.901188 2.397958
  H 4.011896 0.816031 4.243321
  H 2.752179 1.963543 4.691392
  H 3.980371 2.428435 3.531809
  H 2.306386 -0.890130 -1.423796
  H 5.106151 -0.443111 -0.211390
 19
 23.157009
  H 1.397833 0.091934 0.575213
  C 2.466420 -0.009213 0.467526
  C 3.295504 0.497061 1.569510
  C 2.492412 1.116343 2.710715
  C 3.405356 1.642251 3.808127
  C 2.945703 -0.491029 -0.724516
  C 4.274584 -0.717543 -1.031061
  C 5.198154 -0.577875 -2.016131
  H 5.123473 0.138993 -2.827229
  H 5.994863 -1.292859 -2.135264
  H 3.986033 1.261921 1.177797
  H 3.931931 -0.302826 1.964309
  H 1.815979 0.362890 3.135281
  H 1.876196 1.934483 2.332164
  H 4.058096 0.858728 4.171973
  H 2.819501 2.003662 4.649808
  H 4.018600 2.458589 3.449476
  H 2.234705 -0.851894 -1.458785
  H 5.059145 -0.640726 -0.252715
 19
 33.639064
  H 1.353634 0.093263 0.596958
  C 2.423563 0.028173 0.452052
  C 3.282194 0.555246 1.529316
  C 2.496821 1.109902 2.715873
  C 3.430395 1.612770 3.812033
  C 2.885462 -0.516418 -0.719510
  C 4.178739 -0.691993 -1.094579
  C 5.228480 -0.612669 -1.944737
  H 5.286155 0.135808 -2.735713
  H 6.005210 -1.363418 -2.004190
  H 3.930224 1.350227 1.137237
  H 3.950348 -0.237084 1.887144
  H 1.848859 0.329321 3.129668
  H 1.858742 1.928539 2.384687
  H 4.085538 0.818245 4.159083
  H 2.859718 1.971889 4.663057
  H 4.043793 2.430121 3.451180
  H 2.164396 -0.906392 -1.434810
  H 5.147882 -0.556119 -0.438844
 19
 35.525925
  H 1.336608 0.070361 0.614610
  C 2.401533 0.033333 0.449692
  C 3.278013 0.569104 1.513475
  C 2.503918 1.095211 2.721666
  C 3.447182 1.610286 3.802638
  C 2.860468 -0.491972 -0.740942
  C 4.138850 -0.689431 -1.124724
  C 5.242651 -0.646227 -1.904602
  H 5.411913 0.152332 -2.627229
  H 5.962267 -1.459891 -1.954747
  H 3.898745 1.378915 1.115194
  H 3.968153 -0.213612 1.850751
  H 1.883661 0.298935 3.137861
  H 1.840028 1.904399 2.408298
  H 4.129704 0.827689 4.126923
  H 2.884794 1.947489 4.670234
  H 4.033473 2.450339 3.437579
  H 2.132468 -0.877756 -1.447164
  H 5.176580 -0.475697 -0.526269
 19
 31.669429
  H 1.318691 0.089964 0.620099
  C 2.382351 0.056240 0.452575
  C 3.268559 0.566902 1.521696
  C 2.500268 1.075999 2.739312
  C 3.446788 1.609534 3.810121
  C 2.844698 -0.472583 -0.742081
  C 4.082097 -0.621739 -1.188834
  C 5.260292 -0.667107 -1.857676
  H 5.455300 0.041639 -2.655394
  H 5.916025 -1.538702 -1.851750
  H 3.894239 1.377913 1.135495
  H 3.955452 -0.227425 1.846811
  H 1.902838 0.267292 3.158680
  H 1.814757 1.873411 2.435067
  H 4.117785 0.827597 4.157510
  H 2.884695 1.976484 4.667817
  H 4.043993 2.430453 3.425471
  H 2.111051 -0.871103 -1.440460
  H 5.398605 -0.304146 -0.741701
 19
 28.593794
  H 1.318865 0.014490 0.656663
  C 2.379256 0.035438 0.465308
  C 3.262393 0.592382 1.509339
  C 2.497453 1.098287 2.730154
  C 3.448011 1.601303 3.810648
  C 2.842787 -0.458013 -0.745279
  C 4.068215 -0.614119 -1.208555
  C 5.272852 -0.676330 -1.837576
  H 5.521511 0.068521 -2.586846
  H 5.844439 -1.604296 -1.901198
  H 3.856755 1.417902 1.095936
  H 3.979110 -0.170313 1.836551
  H 1.883006 0.294727 3.140168
  H 1.829159 1.910876 2.433985
  H 4.140650 0.816490 4.113968
  H 2.892094 1.917285 4.689719
  H 4.024145 2.453184 3.453856
  H 2.105066 -0.824144 -1.459051
  H 5.501636 -0.365805 -0.743257
 19
 27.092745
  H 1.328940 0.112397 0.584823
  C 2.397319 0.083887 0.445771
  C 3.258560 0.598817 1.531425
  C 2.463008 1.083774 2.742640
  C 3.386822 1.595710 3.842839
  C 2.895789 -0.414532 -0.749669
  C 4.123881 -0.563847 -1.194775
  C 5.324099 -0.683524 -1.855250
  H 5.567657 0.038390 -2.640330
  H 5.794317 -1.664544 -1.993325
  H 3.874706 1.426143 1.157231
  H 3.956230 -0.182443 1.856220
  H 1.855796 0.265754 3.135413
  H 1.785652 1.885334 2.440341
  H 4.065328 0.812158 4.174113
  H 2.808483 1.926093 4.702428
  H 3.978413 2.438994 3.491828
  H 2.176063 -0.803686 -1.473685
  H 5.699406 -0.415825 -0.780888
 19
 25.955207
  H 1.302111 0.125352 0.582132
  C 2.367187 0.073362 0.433050
  C 3.255261 0.642668 1.467626
  C 2.499390 1.054807 2.731450
  C 3.448452 1.622289 3.780478
  C 2.838641 -0.495072 -0.741955
  C 4.052906 -0.652501 -1.213601
  C 5.317511 -0.625470 -1.728322
  H 5.569716 0.163289 -2.432284
  H 5.820164 -1.571733 -1.974677
  H 3.770594 1.522569 1.061362
  H 4.037031 -0.075152 1.738270
  H 1.979887 0.186494 3.141790
  H 1.747448 1.805553 2.480463
  H 4.182397 0.878875 4.083686
  H 2.895661 1.931405 4.664490
  H 3.975941 2.492066 3.394299
  H 2.103152 -0.931051 -1.421555
  H 5.674531 -0.530972 -0.664474
 19
 21.103001
  H 1.337957 0.108210 0.596030
  C 2.406704 0.117509 0.465855
  C 3.248115 0.696066 1.535240
  C 2.452017 1.047851 2.789695
  C 3.353841 1.641135 3.865701
  C 2.946466 -0.395152 -0.702846
  C 4.142459 -0.547453 -1.196126
  C 5.354216 -0.754545 -1.821061
  H 5.515718 -0.126355 -2.702736
  H 5.558951 -1.810828 -2.025210
  H 3.743555 1.602044 1.162367
  H 4.053307 0.000564 1.795440
  H 1.968838 0.151047 3.180910
  H 1.669866 1.766944 2.540524
  H 4.128227 0.932159 4.157313
  H 2.775466 1.890666 4.750467
  H 3.834520 2.549193 3.510157
  H 2.236799 -0.790043 -1.444272
  H 6.110960 -0.462233 -1.075218
