 32
 0.000000
  C 0.967924 0.140427 0.401485
  C 2.446004 0.138457 0.395881
  C 3.235258 0.607645 1.562978
  C 2.461376 1.098235 2.784107
  C 3.413681 1.542660 3.889659
  C 3.058003 -0.325872 -0.760004
  C 4.437559 -0.412678 -0.976679
  C 5.116712 -0.862741 -2.098762
  C 4.626600 -1.386514 -3.404823
  C 3.135809 -1.504949 -3.701045
  C 2.911234 -2.066760 -5.102030
  O 6.441197 -0.854162 -2.077420
  H 0.534640 0.510975 1.323638
  H 0.595490 -0.871803 0.236568
  H 0.595084 0.756836 -0.417999
  H 3.891107 1.419329 1.227782
  H 3.891424 -0.210034 1.882587
  H 1.823551 0.301778 3.172776
  H 1.823280 1.942003 2.513661
  H 4.049774 0.720510 4.211680
  H 2.850286 1.889496 4.753057
  H 4.049495 2.359221 3.553142
  H 2.398016 -0.643152 -1.549672
  H 5.052596 -0.080064 -0.148067
  H 5.083160 -2.375226 -3.529790
  H 5.083584 -0.758437 -4.178349
  H 2.660305 -0.524530 -3.647466
  H 2.659882 -2.176436 -2.984951
  H 3.349582 -1.419315 -5.858493
  H 1.845715 -2.147716 -5.304599
  H 3.349175 -3.057681 -5.201433
  H 6.793216 -0.516252 -1.234300
 32
 4.638982
  C 0.975896 0.141849 0.404625
  C 2.443959 0.134281 0.387651
  C 3.244015 0.596844 1.538246
  C 2.489136 1.092428 2.768275
  C 3.470119 1.528367 3.852682
  C 3.041636 -0.323012 -0.749710
  C 4.401775 -0.403152 -0.949164
  C 5.075135 -0.857543 -2.086394
  C 4.610668 -1.384542 -3.402645
  C 3.130127 -1.512050 -3.717615
  C 2.948932 -2.075154 -5.123442
  O 6.397966 -0.809054 -1.968499
  H 0.563664 0.515368 1.332656
  H 0.598775 -0.866092 0.227922
  H 0.599463 0.747020 -0.420884
  H 3.903130 1.402738 1.197672
  H 3.902345 -0.220873 1.851060
  H 1.854182 0.300224 3.168460
  H 1.855284 1.941753 2.507641
  H 4.104622 0.699999 4.159924
  H 2.933522 1.881771 4.729610
  H 4.105687 2.337786 3.500479
  H 2.385995 -0.637054 -1.533242
  H 5.018544 -0.072512 -0.121235
  H 5.085406 -2.362008 -3.520600
  H 5.084088 -0.757845 -4.162901
  H 2.648334 -0.535560 -3.672554
  H 2.649949 -2.188514 -3.010777
  H 3.402014 -1.422138 -5.865692
  H 1.892602 -2.170958 -5.360095
  H 3.403699 -3.059231 -5.210114
  H 6.474768 -0.437765 -1.038657
 32
 15.126044
  C 0.974082 0.160662 0.436818
  C 2.442019 0.146140 0.408910
  C 3.247941 0.605355 1.560304
  C 2.494956 1.100054 2.790199
  C 3.477610 1.531009 3.874929
  C 3.044670 -0.322664 -0.758206
  C 4.428501 -0.410677 -0.976955
  C 5.080382 -0.872964 -2.134088
  C 4.644925 -1.395231 -3.430618
  C 3.146950 -1.527660 -3.748840
  C 2.963934 -2.095685 -5.159574
  O 6.376572 -0.792219 -1.945792
  H 0.567855 0.534462 1.367125
  H 0.591645 -0.844304 0.259466
  H 0.595338 0.766630 -0.386024
  H 3.909634 1.409811 1.222604
  H 3.905043 -0.212995 1.872520
  H 1.859491 0.308851 3.188754
  H 1.864852 1.951099 2.531300
  H 4.109309 0.701413 4.180528
  H 2.942231 1.883631 4.751320
  H 4.114967 2.338578 3.525098
  H 2.375732 -0.638451 -1.547108
  H 5.030909 -0.079782 -0.153652
  H 5.132337 -2.382148 -3.544045
  H 5.127390 -0.759199 -4.196517
  H 2.664818 -0.551203 -3.703553
  H 2.669599 -2.202963 -3.038900
  H 3.414367 -1.445149 -5.902752
  H 1.907819 -2.193142 -5.394416
  H 3.419104 -3.077393 -5.246165
  H 6.239915 -0.421029 -1.022123
 32
 29.370345
  C 0.995112 0.154640 0.416497
  C 2.467851 0.146423 0.404101
  C 3.262740 0.608976 1.567726
  C 2.498107 1.100844 2.795675
  C 3.470322 1.533733 3.889656
  C 3.085298 -0.320994 -0.762415
  C 4.461015 -0.407966 -0.978669
  C 5.096134 -0.879830 -2.156480
  C 4.651742 -1.405818 -3.457375
  C 3.159793 -1.529596 -3.753288
  C 2.948548 -2.098804 -5.158761
  O 6.386943 -0.780419 -1.921555
  H 0.573583 0.525868 1.342750
  H 0.618401 -0.854040 0.233255
  H 0.621973 0.760539 -0.412113
  H 3.924872 1.420443 1.237876
  H 3.920621 -0.209678 1.888164
  H 1.861650 0.306054 3.189145
  H 1.866800 1.951859 2.533067
  H 4.102725 0.705270 4.199835
  H 2.926050 1.883505 4.762465
  H 4.108350 2.344598 3.546264
  H 2.423980 -0.638181 -1.556587
  H 5.036217 -0.069396 -0.132535
  H 5.128604 -2.381957 -3.573297
  H 5.124410 -0.781610 -4.219822
  H 2.682159 -0.542387 -3.701307
  H 2.686629 -2.204963 -3.028369
  H 3.391930 -1.451566 -5.912223
  H 1.887685 -2.189102 -5.374927
  H 3.396458 -3.085846 -5.251119
  H 6.058230 -0.411553 -1.004604
 32
 46.301493
  C 0.998167 0.147784 0.397446
  C 2.475820 0.141729 0.390543
  C 3.271702 0.605173 1.557694
  C 2.505329 1.096289 2.785644
  C 3.476912 1.528957 3.880696
  C 3.094035 -0.321472 -0.766098
  C 4.483435 -0.410307 -0.986421
  C 5.107547 -0.883784 -2.167254
  C 4.659530 -1.406669 -3.459006
  C 3.168830 -1.524256 -3.739241
  C 2.944171 -2.089527 -5.132835
  O 6.396386 -0.772995 -1.905412
  H 0.573763 0.517633 1.320719
  H 0.622687 -0.861697 0.212667
  H 0.626255 0.753480 -0.432618
  H 3.932683 1.419043 1.230494
  H 3.928576 -0.213550 1.880913
  H 1.869169 0.301458 3.178158
  H 1.874299 1.946873 2.523264
  H 4.109583 0.700155 4.191202
  H 2.931566 1.878423 4.754068
  H 4.115199 2.340645 3.538164
  H 2.435079 -0.638905 -1.561715
  H 5.035148 -0.064256 -0.120318
  H 5.134672 -2.387328 -3.577657
  H 5.130296 -0.781787 -4.226934
  H 2.699638 -0.543714 -3.683396
  H 2.704033 -2.191292 -3.015544
  H 3.382213 -1.445567 -5.888350
  H 1.883055 -2.175631 -5.338436
  H 3.386636 -3.075686 -5.227920
  H 5.903850 -0.404776 -0.988950
 32
 61.532161
  C 1.004986 0.157016 0.416179
  C 2.479589 0.148736 0.404999
  C 3.277303 0.609276 1.567662
  C 2.512119 1.098784 2.793374
  C 3.483595 1.529787 3.887439
  C 3.098661 -0.315783 -0.756022
  C 4.479637 -0.404491 -0.974966
  C 5.115632 -0.885694 -2.174423
  C 4.659033 -1.413003 -3.474954
  C 3.167959 -1.537598 -3.769916
  C 2.959850 -2.107554 -5.172669
  O 6.387904 -0.778879 -1.924788
  H 0.585169 0.527674 1.342311
  H 0.627597 -0.849108 0.233192
  H 0.631714 0.762450 -0.409871
  H 3.935121 1.422486 1.243321
  H 3.930592 -0.207728 1.891648
  H 1.875900 0.304257 3.184974
  H 1.881652 1.949307 2.531597
  H 4.115853 0.700458 4.197363
  H 2.938671 1.878878 4.761110
  H 4.122069 2.341487 3.545438
  H 2.444545 -0.630610 -1.546909
  H 5.017290 -0.045378 -0.072358
  H 5.136726 -2.394410 -3.590005
  H 5.131306 -0.785375 -4.241444
  H 2.693348 -0.557781 -3.721678
  H 2.698657 -2.209051 -3.051231
  H 3.405107 -1.458954 -5.927533
  H 1.896302 -2.199675 -5.391308
  H 3.410420 -3.096262 -5.263068
  H 5.774548 -0.383054 -0.938908
 32
 70.452845
  C 1.026805 0.135631 0.359941
  C 2.501393 0.134861 0.368490
  C 3.291020 0.598557 1.541154
  C 2.507967 1.088678 2.769977
  C 3.470892 1.523619 3.876131
  C 3.135083 -0.323534 -0.778557
  C 4.521055 -0.404092 -0.976117
  C 5.172914 -0.883089 -2.170551
  C 4.660995 -1.405019 -3.455622
  C 3.157560 -1.518741 -3.721025
  C 2.920679 -2.087486 -5.118278
  O 6.438103 -0.808104 -2.002535
  H 0.592977 0.503760 1.280475
  H 0.655152 -0.875609 0.172395
  H 0.659734 0.742454 -0.472463
  H 3.948998 1.425535 1.232112
  H 3.944278 -0.218379 1.884919
  H 1.869159 0.289735 3.156981
  H 1.875124 1.939797 2.502753
  H 4.103143 0.696626 4.192096
  H 2.917428 1.870236 4.744755
  H 4.109626 2.338081 3.541103
  H 2.490313 -0.644069 -1.585951
  H 5.017171 -0.023062 -0.010464
  H 5.113791 -2.391817 -3.588762
  H 5.107436 -0.786231 -4.239559
  H 2.686846 -0.529392 -3.669862
  H 2.693258 -2.194505 -2.992743
  H 3.353833 -1.447561 -5.875882
  H 1.861728 -2.172173 -5.317026
  H 3.359973 -3.071762 -5.215913
  H 5.725868 -0.345518 -0.851897
 32
 73.625108
  C 1.044294 0.134631 0.348066
  C 2.516718 0.138287 0.367977
  C 3.295939 0.602371 1.549155
  C 2.502402 1.084636 2.765291
  C 3.451115 1.521046 3.881848
  C 3.166756 -0.319494 -0.781849
  C 4.542429 -0.395998 -0.967591
  C 5.224095 -0.891520 -2.197425
  C 4.652172 -1.411692 -3.470685
  C 3.149383 -1.515297 -3.707506
  C 2.895747 -2.085075 -5.101665
  O 6.479953 -0.838356 -2.084474
  H 0.602270 0.500381 1.267575
  H 0.677932 -0.873001 0.157546
  H 0.682518 0.739797 -0.481749
  H 3.947170 1.428847 1.244402
  H 3.942596 -0.212807 1.892428
  H 1.862368 0.283640 3.143090
  H 1.868506 1.932110 2.493448
  H 4.081913 0.695543 4.207016
  H 2.883508 1.863801 4.744599
  H 4.087987 2.342254 3.557713
  H 2.533586 -0.640950 -1.593847
  H 4.999500 -0.004003 0.028607
  H 5.102351 -2.404346 -3.619952
  H 5.094416 -0.802322 -4.271747
  H 2.694812 -0.529186 -3.657655
  H 2.702302 -2.188456 -2.980233
  H 3.327543 -1.444171 -5.869183
  H 1.827361 -2.167388 -5.290506
  H 3.334294 -3.076843 -5.202505
  H 5.683181 -0.309015 -0.773734
 32
 73.583480
  C 1.057948 0.126289 0.317092
  C 2.531537 0.136377 0.349997
  C 3.300987 0.599089 1.536842
  C 2.503267 1.075989 2.752388
  C 3.448043 1.512546 3.874055
  C 3.192668 -0.315203 -0.790265
  C 4.573667 -0.387100 -0.960301
  C 5.254685 -0.885574 -2.186289
  C 4.630437 -1.403464 -3.444121
  C 3.132033 -1.512457 -3.691377
  C 2.879404 -2.085176 -5.087535
  O 6.498646 -0.864286 -2.151014
  H 0.607282 0.488508 1.235280
  H 0.696414 -0.882299 0.122567
  H 0.699378 0.733021 -0.512910
  H 3.954926 1.426514 1.237607
  H 3.951697 -0.213638 1.879269
  H 1.861452 0.272005 3.126743
  H 1.867237 1.923817 2.480789
  H 4.079971 0.687330 4.199661
  H 2.876846 1.852297 4.735794
  H 4.084144 2.336643 3.553671
  H 2.572255 -0.634622 -1.597237
  H 4.965496 0.026024 0.094911
  H 5.079384 -2.393359 -3.593067
  H 5.070815 -0.799463 -4.245825
  H 2.668588 -0.523971 -3.638521
  H 2.675839 -2.182593 -2.957670
  H 3.307636 -1.439528 -5.858583
  H 1.807560 -2.163720 -5.275817
  H 3.315782 -3.082003 -5.189244
  H 5.640110 -0.260446 -0.670601
 32
 73.948817
  C 1.087719 0.107336 0.287544
  C 2.557414 0.122532 0.336715
  C 3.312651 0.593146 1.530731
  C 2.497756 1.071845 2.734024
  C 3.421978 1.519622 3.870658
  C 3.236591 -0.330203 -0.799053
  C 4.615693 -0.395700 -0.955448
  C 5.298440 -0.894239 -2.198847
  C 4.618879 -1.401004 -3.446393
  C 3.109146 -1.492228 -3.658242
  C 2.838567 -2.062497 -5.047739
  O 6.535171 -0.893270 -2.211949
  H 0.626133 0.470132 1.197859
  H 0.731948 -0.902833 0.092264
  H 0.736349 0.709975 -0.547998
  H 3.962790 1.431405 1.236584
  H 3.961385 -0.218673 1.890475
  H 1.851120 0.266512 3.101339
  H 1.856225 1.910299 2.450285
  H 4.056153 0.700029 4.208318
  H 2.835308 1.860103 4.722317
  H 4.059250 2.346337 3.556594
  H 2.621654 -0.653314 -1.618298
  H 4.921461 0.031130 0.160364
  H 5.047395 -2.401219 -3.595943
  H 5.041227 -0.785408 -4.250566
  H 2.658542 -0.502514 -3.609514
  H 2.667995 -2.168755 -2.931591
  H 3.263901 -1.423366 -5.820878
  H 1.767257 -2.140781 -5.224096
  H 3.270933 -3.056829 -5.151891
  H 5.613294 -0.227997 -0.574128
 32
 76.869785
  C 1.094017 0.096975 0.287841
  C 2.566104 0.113019 0.348129
  C 3.314074 0.584841 1.548429
  C 2.491522 1.071074 2.745813
  C 3.407126 1.537618 3.871801
  C 3.252937 -0.335937 -0.781457
  C 4.634604 -0.396577 -0.927951
  C 5.322940 -0.904760 -2.216967
  C 4.613595 -1.401631 -3.459972
  C 3.103759 -1.488748 -3.668550
  C 2.817816 -2.056571 -5.058089
  O 6.554928 -0.920806 -2.267084
  H 0.625927 0.458375 1.193613
  H 0.739248 -0.914919 0.088703
  H 0.747128 0.700717 -0.551667
  H 3.958004 1.425618 1.258240
  H 3.965134 -0.219750 1.917009
  H 1.839009 0.278174 3.117823
  H 1.857055 1.909322 2.448259
  H 4.039701 0.726082 4.224442
  H 2.817607 1.891756 4.714932
  H 4.043448 2.356504 3.545227
  H 2.636620 -0.655234 -1.606000
  H 4.881738 0.031549 0.230279
  H 5.032891 -2.402847 -3.611949
  H 5.029356 -0.779747 -4.260921
  H 2.651010 -0.497826 -3.605752
  H 2.663249 -2.164945 -2.935852
  H 3.235895 -1.420722 -5.833213
  H 1.747511 -2.131152 -5.223826
  H 3.245099 -3.047644 -5.169551
  H 5.582411 -0.205550 -0.494565
 32
 79.511686
  C 1.109797 0.090678 0.273340
  C 2.576929 0.120087 0.334623
  C 3.318238 0.607462 1.527527
  C 2.487512 1.066943 2.728824
  C 3.397330 1.530319 3.864153
  C 3.279573 -0.334635 -0.785748
  C 4.664415 -0.393617 -0.912323
  C 5.325296 -0.908906 -2.198858
  C 4.585751 -1.397644 -3.430599
  C 3.074607 -1.484667 -3.649374
  C 2.801473 -2.043536 -5.041328
  O 6.549743 -0.946501 -2.289391
  H 0.641033 0.455528 1.171051
  H 0.764094 -0.927427 0.084762
  H 0.757827 0.683749 -0.573221
  H 3.960877 1.457769 1.245386
  H 3.964683 -0.203290 1.902168
  H 1.849618 0.256443 3.088055
  H 1.846707 1.899895 2.437947
  H 4.042366 0.720792 4.208125
  H 2.801494 1.864712 4.713834
  H 4.026615 2.364515 3.547873
  H 2.680945 -0.661992 -1.598757
  H 4.832187 0.049290 0.298815
  H 4.997373 -2.397427 -3.577346
  H 5.002682 -0.776367 -4.227310
  H 2.615038 -0.497995 -3.586103
  H 2.617896 -2.156256 -2.925747
  H 3.224911 -1.404510 -5.805979
  H 1.734340 -2.114159 -5.215853
  H 3.227502 -3.034607 -5.152376
  H 5.535282 -0.170380 -0.416950
 32
 84.558392
  C 1.111086 0.065402 0.265488
  C 2.579040 0.111179 0.332432
  C 3.315787 0.615899 1.527463
  C 2.477420 1.073127 2.726786
  C 3.381788 1.552016 3.864379
  C 3.295870 -0.345824 -0.777373
  C 4.683821 -0.403611 -0.888476
  C 5.348226 -0.933756 -2.210356
  C 4.576891 -1.405850 -3.426470
  C 3.066056 -1.464977 -3.628609
  C 2.773263 -2.011356 -5.023727
  O 6.568985 -0.985643 -2.329874
  H 0.631848 0.434598 1.162090
  H 0.777388 -0.956672 0.083652
  H 0.756951 0.646392 -0.586430
  H 3.941837 1.477510 1.245815
  H 3.969346 -0.186266 1.913596
  H 1.852984 0.254031 3.087842
  H 1.824326 1.896868 2.430988
  H 4.036472 0.752407 4.212355
  H 2.781575 1.879974 4.710299
  H 4.000170 2.392785 3.548209
  H 2.708317 -0.686172 -1.591332
  H 4.797629 0.046584 0.366399
  H 4.974364 -2.412629 -3.591439
  H 4.990694 -0.783771 -4.227330
  H 2.623074 -0.470954 -3.559498
  H 2.600906 -2.136621 -2.903688
  H 3.202949 -1.373295 -5.788692
  H 1.703134 -2.062947 -5.190683
  H 3.182555 -3.009860 -5.143819
  H 5.500566 -0.159572 -0.359158
 32
 90.977830
  C 1.102177 0.045064 0.262701
  C 2.575844 0.101995 0.333884
  C 3.311853 0.624159 1.525123
  C 2.470899 1.077108 2.725473
  C 3.370662 1.575810 3.854191
  C 3.304100 -0.357340 -0.762095
  C 4.692123 -0.409991 -0.849919
  C 5.369309 -0.953998 -2.211673
  C 4.568543 -1.411171 -3.416425
  C 3.054371 -1.451148 -3.607357
  C 2.745170 -1.973627 -5.008967
  O 6.584555 -1.023243 -2.351217
  H 0.614598 0.422682 1.160904
  H 0.775643 -0.982600 0.090083
  H 0.744788 0.615578 -0.596844
  H 3.917449 1.500785 1.237687
  H 3.979245 -0.166662 1.921492
  H 1.864017 0.251694 3.093854
  H 1.804056 1.887038 2.426324
  H 4.036599 0.790998 4.203574
  H 2.771106 1.898008 4.696568
  H 3.972444 2.420578 3.532388
  H 2.719009 -0.705643 -1.593925
  H 4.760137 0.044388 0.463489
  H 4.956666 -2.421710 -3.600999
  H 4.976545 -0.783073 -4.216256
  H 2.622598 -0.453493 -3.520878
  H 2.586667 -2.130523 -2.889844
  H 3.178613 -1.324899 -5.771895
  H 1.668015 -2.010946 -5.168859
  H 3.144213 -2.979074 -5.147999
  H 5.454606 -0.150131 -0.290413
