 18
 0.000000
  C 0.896411 0.055938 0.222650
  C 2.396285 0.058287 0.120239
  C 3.249336 -0.009640 1.370766
  C 2.531981 -0.094424 2.715396
  C 3.540324 -0.156362 3.858302
  C 2.992339 0.121954 -1.062004
  H 2.446065 0.175605 -1.988437
  H 4.066055 0.123502 -1.154704
  H 0.555632 0.020450 1.251500
  H 0.474987 -0.806524 -0.290847
  H 0.484517 0.955434 -0.232941
  H 3.895528 0.873591 1.386421
  H 3.907431 -0.879644 1.282539
  H 1.905053 -0.988120 2.751751
  H 1.894162 0.780653 2.858148
  H 4.180787 -1.030193 3.758247
  H 3.027421 -0.216841 4.815838
  H 4.169621 0.731206 3.863497
 18
 3.800253
  C 0.896464 0.100120 0.235581
  C 2.372474 0.060118 0.127447
  C 3.242488 -0.005707 1.373563
  C 2.531307 -0.100547 2.719228
  C 3.540500 -0.161796 3.860110
  C 2.961907 0.104841 -1.059901
  H 2.396518 0.159524 -1.974830
  H 4.033439 0.079795 -1.164298
  H 0.516180 0.045737 1.242832
  H 0.683341 -0.783958 -0.304872
  H 0.466904 0.964008 -0.262689
  H 3.882934 0.880784 1.386912
  H 3.908108 -0.867898 1.276851
  H 1.909542 -0.998211 2.750358
  H 1.889345 0.770763 2.865430
  H 4.186289 -1.031126 3.754257
  H 3.030157 -0.229367 4.818361
  H 4.165003 0.729247 3.866875
 18
 11.404103
  C 0.879894 0.142393 0.254968
  C 2.361431 0.069636 0.134156
  C 3.244040 0.003833 1.368326
  C 2.531512 -0.105792 2.714254
  C 3.538276 -0.169153 3.857308
  C 2.944108 0.086983 -1.056921
  H 2.374903 0.151485 -1.969256
  H 4.012305 0.018352 -1.166317
  H 0.477524 0.067182 1.255601
  H 0.859364 -0.766633 -0.288486
  H 0.432269 0.970588 -0.290976
  H 3.874969 0.898676 1.383381
  H 3.920085 -0.851696 1.263164
  H 1.914621 -1.007000 2.735987
  H 1.883495 0.760052 2.863991
  H 4.189922 -1.033369 3.746652
  H 3.026350 -0.246765 4.813704
  H 4.157159 0.725412 3.871609
 18
 21.684982
  C 0.875835 0.169600 0.284929
  C 2.358095 0.067964 0.140199
  C 3.234640 0.003521 1.356104
  C 2.523543 -0.110852 2.698901
  C 3.530761 -0.172741 3.841736
  C 2.941916 0.074376 -1.053916
  H 2.374119 0.141136 -1.969823
  H 4.009647 -0.004123 -1.161287
  H 0.469973 0.088797 1.286531
  H 1.001833 -0.743630 -0.243326
  H 0.414769 0.963406 -0.282981
  H 3.858996 0.902399 1.368977
  H 3.913565 -0.848136 1.248083
  H 1.909315 -1.013868 2.718420
  H 1.872131 0.752718 2.849387
  H 4.185495 -1.034606 3.729776
  H 3.019143 -0.253606 4.797832
  H 4.146647 0.723968 3.857416
 18
 31.609233
  C 0.848500 0.201979 0.271898
  C 2.338735 0.070524 0.132777
  C 3.225353 0.005600 1.364059
  C 2.527823 -0.120235 2.710841
  C 3.545982 -0.181027 3.842315
  C 2.935217 0.064650 -1.057611
  H 2.378740 0.142684 -1.977094
  H 4.002519 -0.034655 -1.153201
  H 0.424591 0.142129 1.257861
  H 1.109334 -0.737860 -0.217525
  H 0.380668 0.948384 -0.345981
  H 3.838898 0.907990 1.377956
  H 3.911615 -0.835544 1.252402
  H 1.919775 -1.027867 2.731983
  H 1.873161 0.738458 2.872413
  H 4.205285 -1.038099 3.719685
  H 3.044179 -0.269816 4.803152
  H 4.156191 0.719878 3.856072
 18
 40.458364
  C 0.847311 0.224322 0.290064
  C 2.334828 0.071171 0.126045
  C 3.227106 0.006928 1.348198
  C 2.522121 -0.126432 2.703514
  C 3.540513 -0.187992 3.844616
  C 2.931458 0.061744 -1.069435
  H 2.373968 0.148794 -1.986761
  H 3.993600 -0.052947 -1.165603
  H 0.444042 0.185749 1.279706
  H 1.202427 -0.731842 -0.148159
  H 0.361054 0.917127 -0.372867
  H 3.835847 0.921860 1.359535
  H 3.925201 -0.837239 1.231879
  H 1.914207 -1.037497 2.719494
  H 1.862642 0.730666 2.865296
  H 4.203523 -1.043404 3.722396
  H 3.035231 -0.281037 4.804447
  H 4.148734 0.715338 3.863687
 18
 47.129686
  C 0.845622 0.246686 0.297011
  C 2.331342 0.071724 0.120654
  C 3.218067 0.007895 1.349976
  C 2.520280 -0.130426 2.697375
  C 3.540524 -0.196666 3.831932
  C 2.933754 0.058748 -1.076531
  H 2.382986 0.148101 -1.986660
  H 3.995843 -0.046229 -1.168784
  H 0.448894 0.255478 1.296087
  H 1.278997 -0.737609 -0.074307
  H 0.344828 0.863240 -0.414653
  H 3.817601 0.919769 1.363640
  H 3.919590 -0.831923 1.234534
  H 1.913564 -1.039307 2.711100
  H 1.866612 0.720271 2.865076
  H 4.202443 -1.050767 3.704204
  H 3.039829 -0.293263 4.790049
  H 4.147504 0.704850 3.852371
 18
 51.246614
  C 0.841446 0.268788 0.292517
  C 2.329876 0.081297 0.118609
  C 3.217617 0.021825 1.351123
  C 2.523241 -0.134714 2.699479
  C 3.545920 -0.217500 3.827967
  C 2.935123 0.065929 -1.081807
  H 2.379453 0.165054 -1.999298
  H 3.998907 -0.079450 -1.174013
  H 0.448551 0.370045 1.281561
  H 1.349881 -0.742568 0.038312
  H 0.308386 0.754808 -0.500785
  H 3.805183 0.939984 1.369185
  H 3.923013 -0.801880 1.231413
  H 1.916283 -1.042068 2.703054
  H 1.869022 0.716755 2.883495
  H 4.207143 -1.071435 3.686196
  H 3.046683 -0.326866 4.789057
  H 4.154489 0.684398 3.857932
 18
 55.394947
  C 0.851254 0.281713 0.286981
  C 2.324728 0.082386 0.112885
  C 3.212259 0.027868 1.352382
  C 2.523022 -0.138455 2.698974
  C 3.548916 -0.230155 3.820110
  C 2.936450 0.062323 -1.088609
  H 2.385827 0.156800 -2.002045
  H 3.991183 -0.085278 -1.175019
  H 0.456786 0.432269 1.280594
  H 1.406752 -0.735484 0.092755
  H 0.313758 0.692288 -0.527213
  H 3.791839 0.947159 1.374186
  H 3.916229 -0.782858 1.231560
  H 1.912424 -1.050383 2.698271
  H 1.863004 0.721239 2.895632
  H 4.209206 -1.083997 3.668591
  H 3.053202 -0.346380 4.782731
  H 4.159341 0.673258 3.853972
 18
 58.524509
  C 0.849739 0.295973 0.295925
  C 2.322007 0.084477 0.113672
  C 3.209904 0.035916 1.349400
  C 2.519702 -0.137842 2.688519
  C 3.549985 -0.238419 3.821254
  C 2.935170 0.059686 -1.090208
  H 2.381051 0.148150 -2.004951
  H 4.016348 -0.094663 -1.178316
  H 0.459629 0.475372 1.277836
  H 1.448958 -0.729475 0.140121
  H 0.294705 0.650473 -0.543052
  H 3.784722 0.960519 1.374603
  H 3.934951 -0.788349 1.224241
  H 1.910012 -1.043969 2.679031
  H 1.870348 0.706979 2.884734
  H 4.215327 -1.098944 3.666322
  H 3.050844 -0.359760 4.783416
  H 4.163865 0.666932 3.863454
 18
 61.294526
  C 0.851340 0.308837 0.298361
  C 2.333652 0.078430 0.110349
  C 3.224213 0.036598 1.340782
  C 2.525836 -0.144030 2.698438
  C 3.547080 -0.249444 3.822691
  C 2.944028 0.050789 -1.099546
  H 2.383566 0.136808 -2.018808
  H 4.002656 -0.092699 -1.187531
  H 0.461866 0.505965 1.274055
  H 1.490199 -0.728860 0.167194
  H 0.286292 0.617718 -0.554312
  H 3.798764 0.969502 1.363914
  H 3.940751 -0.771263 1.213655
  H 1.917286 -1.045836 2.688054
  H 1.873217 0.705713 2.900939
  H 4.204266 -1.102281 3.665628
  H 3.047003 -0.373387 4.784726
  H 4.158296 0.649624 3.866903
 18
 63.887545
  C 0.848768 0.328786 0.296292
  C 2.335741 0.075424 0.115364
  C 3.228089 0.045087 1.346741
  C 2.532236 -0.145870 2.691411
  C 3.553508 -0.259707 3.819345
  C 2.947081 0.043862 -1.098326
  H 2.390390 0.130854 -2.010890
  H 4.005093 -0.118509 -1.186851
  H 0.453120 0.540774 1.261730
  H 1.517830 -0.718480 0.198393
  H 0.273883 0.578144 -0.574480
  H 3.791235 0.982440 1.372280
  H 3.956108 -0.756745 1.218620
  H 1.920355 -1.053277 2.671728
  H 1.875189 0.704068 2.899183
  H 4.210736 -1.109514 3.657891
  H 3.053286 -0.390651 4.776617
  H 4.163508 0.636969 3.871815
 18
 66.656533
  C 0.853368 0.342157 0.296131
  C 2.335441 0.070105 0.118771
  C 3.232718 0.046947 1.346682
  C 2.536163 -0.150510 2.690607
  C 3.552302 -0.266150 3.813981
  C 2.949086 0.036156 -1.098530
  H 2.391934 0.122045 -2.006412
  H 4.003727 -0.132011 -1.188829
  H 0.456283 0.554089 1.260309
  H 1.545670 -0.714885 0.210479
  H 0.276531 0.559604 -0.582940
  H 3.790058 0.990525 1.374312
  H 3.966989 -0.752289 1.216925
  H 1.930479 -1.054269 2.665257
  H 1.877836 0.697794 2.899093
  H 4.215402 -1.119749 3.648360
  H 3.045258 -0.402947 4.782706
  H 4.164331 0.637191 3.869782
 18
 68.973984
  C 0.855057 0.356180 0.289439
  C 2.337336 0.063290 0.116484
  C 3.236887 0.047418 1.346916
  C 2.539751 -0.155645 2.693474
  C 3.558870 -0.272432 3.820531
  C 2.953101 0.027513 -1.102005
  H 2.390829 0.114581 -2.018834
  H 4.009638 -0.146448 -1.191639
  H 0.449731 0.565126 1.256865
  H 1.568945 -0.715187 0.212223
  H 0.281470 0.548708 -0.588620
  H 3.791270 0.998904 1.374237
  H 3.974019 -0.745598 1.216079
  H 1.933629 -1.063931 2.667393
  H 1.880555 0.688996 2.905237
  H 4.216422 -1.115704 3.653778
  H 3.057410 -0.410871 4.777759
  H 4.162993 0.622981 3.877025
