 20
 0.000000
  C 1.006684 -0.072388 0.045694
  C 2.502955 -0.082651 0.025816
  C 3.220396 -0.594651 -0.979911
  C 4.658618 -0.604966 -0.999396
  C 5.377997 -1.120850 -2.011484
  C 6.816712 -1.130455 -2.031209
  C 7.533961 -1.642799 -3.036356
  C 9.024052 -1.662065 -3.075109
  H 0.645474 0.393007 0.962151
  H 0.610630 -1.087126 0.006488
  H 0.609914 0.495403 -0.796288
  H 3.001848 0.352395 0.882008
  H 2.710348 -1.028305 -1.831666
  H 5.163210 -0.169364 -0.145859
  H 4.873194 -1.556263 -2.864959
  H 7.324248 -0.695560 -1.178733
  H 7.034491 -2.079513 -3.892388
  H 9.458914 -1.208453 -2.185895
  H 9.382616 -1.116332 -3.949443
  H 9.383138 -2.690042 -3.146912
 20
 6.363898
  C 1.098520 0.224799 -0.099781
  C 2.482921 -0.291510 0.121152
  C 3.192744 -0.905578 -0.838128
  C 4.620540 -0.916479 -0.875264
  C 5.374565 -1.437557 -1.860734
  C 6.780031 -1.190839 -2.005228
  C 7.531132 -1.693429 -2.989599
  C 8.984008 -1.418947 -3.168489
  H 0.762276 0.808946 0.752501
  H 0.371630 -0.565340 -0.286804
  H 1.145874 0.881665 -0.968890
  H 2.911710 -0.156768 1.104179
  H 2.676096 -1.315708 -1.698701
  H 5.108802 -0.315119 -0.116198
  H 4.913809 -2.077601 -2.603371
  H 7.236059 -0.550478 -1.259846
  H 7.077168 -2.334247 -3.734722
  H 9.394193 -0.900729 -2.304496
  H 9.143684 -0.798522 -4.052256
  H 9.532552 -2.348250 -3.320269
 20
 27.775735
  C 1.263189 0.358567 -0.136692
  C 2.418113 -0.513993 0.222019
  C 3.167062 -1.155848 -0.740083
  C 4.551815 -0.985878 -0.876374
  C 5.341832 -1.537952 -1.829370
  C 6.698502 -1.155379 -2.047959
  C 7.498477 -1.706310 -2.970209
  C 8.936575 -1.360199 -3.156727
  H 0.978899 0.990799 0.701252
  H 0.379225 -0.185429 -0.464608
  H 1.615748 0.997074 -0.947144
  H 2.686195 -0.593910 1.267282
  H 2.657590 -1.761163 -1.480719
  H 4.998015 -0.256074 -0.209689
  H 4.941718 -2.321900 -2.458333
  H 7.075445 -0.336692 -1.445506
  H 7.136254 -2.540215 -3.559185
  H 9.276591 -0.676945 -2.380373
  H 9.089976 -0.885314 -4.123676
  H 9.554608 -2.260021 -3.133032
 20
 60.065059
  C 1.456725 0.511625 -0.200457
  C 2.321054 -0.593665 0.275386
  C 3.200610 -1.303699 -0.630052
  C 4.490464 -0.948180 -0.881673
  C 5.339969 -1.588857 -1.790770
  C 6.654588 -1.172755 -2.041568
  C 7.492738 -1.760996 -2.930464
  C 8.877490 -1.294567 -3.210372
  H 1.058709 1.088589 0.633169
  H 0.610346 0.129457 -0.782013
  H 2.019293 1.176769 -0.860631
  H 2.245671 -0.905163 1.305417
  H 2.788119 -2.160579 -1.159204
  H 4.885710 -0.083511 -0.357395
  H 4.963116 -2.445373 -2.333225
  H 7.014856 -0.318337 -1.481129
  H 7.148295 -2.610126 -3.504129
  H 9.177204 -0.515878 -2.513381
  H 8.946700 -0.894484 -4.225104
  H 9.583017 -2.121703 -3.142947
 20
 26.691522
  C 1.609750 0.600615 -0.172895
  C 2.253888 -0.700284 0.171383
  C 3.197562 -1.334719 -0.591618
  C 4.439487 -0.808243 -1.026382
  C 5.286919 -1.488930 -1.841059
  C 6.610901 -1.058102 -2.147261
  C 7.461443 -1.734183 -2.925811
  C 8.857480 -1.305799 -3.221132
  H 1.197533 1.096686 0.705337
  H 0.784138 0.379931 -0.851905
  H 2.258698 1.286271 -0.724801
  H 1.928887 -1.161681 1.093579
  H 3.016338 -2.377519 -0.841936
  H 4.739344 0.149273 -0.622345
  H 4.974440 -2.447255 -2.240158
  H 6.946400 -0.135276 -1.668336
  H 7.134609 -2.647477 -3.410050
  H 9.133553 -0.431365 -2.632901
  H 8.955324 -1.056531 -4.277532
  H 9.558724 -2.108376 -3.011994
 20
 6.736125
  C 1.758963 0.677616 -0.174449
  C 2.169164 -0.732433 0.069669
  C 3.198271 -1.380936 -0.503312
  C 4.434315 -0.823664 -0.990806
  C 5.287670 -1.530885 -1.751378
  C 6.586991 -1.060515 -2.148685
  C 7.452110 -1.772792 -2.871346
  C 8.792080 -1.287817 -3.298919
  H 1.283310 1.111633 0.701346
  H 1.023127 0.671249 -0.981431
  H 2.566502 1.316595 -0.510101
  H 1.513444 -1.289999 0.730020
  H 3.134122 -2.463900 -0.562308
  H 4.688473 0.189446 -0.688882
  H 5.016211 -2.530759 -2.064522
  H 6.868414 -0.070395 -1.806490
  H 7.176959 -2.760845 -3.215544
  H 9.059097 -0.360979 -2.784288
  H 8.800399 -1.100949 -4.374539
  H 9.551444 -2.041016 -3.093234
 20
 2.066194
  C 1.921185 0.738464 -0.212906
  C 2.108249 -0.733106 -0.061560
  C 3.189902 -1.434620 -0.397991
  C 4.463006 -0.908715 -0.840028
  C 5.290421 -1.583391 -1.653522
  C 6.563403 -1.082519 -2.097504
  C 7.382371 -1.747562 -2.915149
  C 8.705156 -1.246441 -3.381233
  H 1.555688 1.181042 0.711239
  H 1.169755 0.920141 -0.983072
  H 2.832367 1.236931 -0.522344
  H 1.236021 -1.263607 0.299050
  H 3.134102 -2.517247 -0.353991
  H 4.766547 0.066473 -0.481863
  H 4.998880 -2.557369 -2.026515
  H 6.854106 -0.107402 -1.726455
  H 7.093142 -2.721937 -3.284459
  H 8.915830 -0.260664 -2.975164
  H 8.725750 -1.189484 -4.469274
  H 9.497174 -1.930233 -3.076293
 20
 5.115386
  C 2.085431 0.710656 -0.505762
  C 2.137932 -0.715237 -0.068196
  C 3.225738 -1.471983 -0.143148
  C 4.538322 -0.997952 -0.582859
  C 5.220475 -1.527748 -1.602808
  C 6.545220 -1.109464 -1.986272
  C 7.216507 -1.616850 -3.020628
  C 8.585365 -1.199216 -3.430911
  H 1.532024 1.323460 0.202401
  H 1.590565 0.780830 -1.478124
  H 3.094537 1.095187 -0.634698
  H 1.211326 -1.134017 0.302575
  H 3.173708 -2.518836 0.129930
  H 5.010627 -0.237977 0.029211
  H 4.761138 -2.296263 -2.212116
  H 7.000225 -0.336636 -1.377493
  H 6.759659 -2.385883 -3.629673
  H 8.969236 -0.420232 -2.777247
  H 8.576282 -0.826167 -4.456254
  H 9.265748 -2.051837 -3.400694
 20
 11.325490
  C 2.221570 0.609390 -0.730720
  C 2.154016 -0.720454 -0.046813
  C 3.249190 -1.460776 0.027941
  C 4.542319 -0.957615 -0.468016
  C 5.129839 -1.362699 -1.598225
  C 6.501633 -1.072779 -1.943789
  C 7.078706 -1.450127 -3.085145
  C 8.505118 -1.199630 -3.437807
  H 1.584699 1.364238 -0.286720
  H 2.020614 0.523523 -1.799228
  H 3.298433 0.852311 -0.729241
  H 1.219683 -1.028190 0.398143
  H 3.263411 -2.439252 0.489312
  H 5.169472 -0.517761 0.299998
  H 4.544583 -1.886449 -2.341359
  H 7.071927 -0.510508 -1.217390
  H 6.500782 -1.992042 -3.820986
  H 9.020741 -0.671009 -2.637503
  H 8.571198 -0.605813 -4.350239
  H 9.020362 -2.145437 -3.625878
 20
 35.147919
  C 2.251761 0.555764 -0.745390
  C 2.144770 -0.741523 -0.036193
  C 3.259834 -1.455437 -0.005197
  C 4.458547 -0.761483 -0.536911
  C 5.065108 -1.190765 -1.676845
  C 6.457276 -1.016624 -1.962031
  C 7.047423 -1.408584 -3.093820
  C 8.497222 -1.234150 -3.397596
  H 1.651425 1.368815 -0.368455
  H 2.272301 0.512079 -1.841926
  H 3.450343 0.555723 -0.742957
  H 1.257724 -1.002683 0.513393
  H 3.357533 -2.448081 0.393129
  H 5.155438 -0.457671 0.244286
  H 4.471514 -1.697055 -2.424538
  H 7.047958 -0.511080 -1.208196
  H 6.462065 -1.884287 -3.859970
  H 9.014296 -0.737105 -2.576619
  H 8.622500 -0.640197 -4.303006
  H 8.969111 -2.200530 -3.576779
 20
 58.271463
  C 2.108026 0.523121 -0.719036
  C 2.144249 -0.753513 -0.069907
  C 3.324593 -1.390963 -0.064839
  C 4.454577 -0.548419 -0.562574
  C 5.073521 -1.024084 -1.738421
  C 6.458193 -0.944008 -1.997219
  C 7.058557 -1.426416 -3.104057
  C 8.515230 -1.318538 -3.386192
  H 1.425877 1.274394 -0.348164
  H 2.290622 0.586398 -1.781400
  H 3.747138 0.464850 -0.721550
  H 1.289432 -1.111690 0.488232
  H 3.496424 -2.401133 0.265257
  H 5.168912 -0.279529 0.217288
  H 4.450841 -1.508540 -2.478805
  H 7.067118 -0.449011 -1.248921
  H 6.464605 -1.933435 -3.853298
  H 9.032982 -0.798177 -2.583742
  H 8.681747 -0.779082 -4.320253
  H 8.956017 -2.309575 -3.504162
 20
 54.924240
  C 1.804599 0.410315 -0.703405
  C 2.193221 -0.794715 -0.147323
  C 3.499400 -1.214932 -0.146528
  C 4.529748 -0.235286 -0.578140
  C 5.125917 -0.801134 -1.776408
  C 6.501209 -0.894004 -2.001161
  C 7.065739 -1.460831 -3.097210
  C 8.526658 -1.487774 -3.367879
  H 0.901981 0.893015 -0.363419
  H 2.165363 0.739517 -1.661287
  H 3.946996 0.706040 -0.723919
  H 1.457527 -1.382904 0.390746
  H 3.796739 -2.214112 0.125883
  H 5.265392 -0.027604 0.201329
  H 4.458416 -1.240169 -2.503926
  H 7.153417 -0.452453 -1.255423
  H 6.431067 -1.919195 -3.843893
  H 9.083408 -1.006256 -2.567569
  H 8.752522 -0.980040 -4.307829
  H 8.874693 -2.517596 -3.468637
 20
 37.320537
  C 1.798674 0.071171 -0.894315
  C 2.508090 -0.971955 -0.438593
  C 3.930879 -0.980490 -0.314979
  C 4.654992 0.289519 -0.452815
  C 5.080615 -0.409569 -1.658161
  C 6.433204 -0.806739 -1.896525
  C 6.850968 -1.443648 -2.997363
  C 8.273759 -1.759897 -3.297507
  H 0.740752 0.139034 -0.695710
  H 2.179270 0.750527 -1.635411
  H 4.048166 1.181623 -0.578731
  H 1.986257 -1.830225 -0.035026
  H 4.453329 -1.881042 -0.041739
  H 5.377064 0.459450 0.343379
  H 4.352404 -0.653692 -2.416857
  H 7.160720 -0.522085 -1.145264
  H 6.130913 -1.736962 -3.750436
  H 8.927633 -1.422660 -2.495850
  H 8.584044 -1.282040 -4.229172
  H 8.402076 -2.835497 -3.427252
 20
 9.534467
  C 1.856660 -0.201674 -1.074119
  C 2.718892 -1.067624 -0.556906
  C 4.154258 -0.837963 -0.389671
  C 4.719909 0.539096 -0.354476
  C 5.024792 -0.254905 -1.567458
  C 6.347015 -0.818833 -1.827589
  C 6.718503 -1.353954 -2.984059
  C 8.075831 -1.905073 -3.265565
  H 0.796503 -0.385355 -1.035106
  H 2.164695 0.670014 -1.624008
  H 4.072610 1.396238 -0.467804
  H 2.352745 -2.003790 -0.153639
  H 4.707681 -1.623252 0.108838
  H 5.476744 0.693987 0.404283
  H 4.361090 -0.170683 -2.419671
  H 7.050092 -0.771102 -1.008272
  H 6.012774 -1.403991 -3.802769
  H 8.720843 -1.819875 -2.394163
  H 8.534807 -1.371018 -4.095177
  H 8.007364 -2.955419 -3.550995
 20
 6.564572
  C 1.907463 -0.360048 -1.310280
  C 2.699124 -0.985828 -0.456105
  C 4.164253 -0.854340 -0.358632
  C 4.796991 0.502290 -0.247097
  C 5.004874 -0.286480 -1.494137
  C 6.298721 -0.899027 -1.789629
  C 6.701188 -1.243290 -3.001968
  C 8.023089 -1.857426 -3.314343
  H 0.840021 -0.487501 -1.271936
  H 2.276644 0.306915 -2.072978
  H 4.144641 1.353094 -0.327948
  H 2.258723 -1.619249 0.303173
  H 4.654748 -1.669652 0.161185
  H 5.581941 0.618637 0.487240
  H 4.448534 0.027556 -2.364397
  H 6.948688 -1.059274 -0.939335
  H 6.046748 -1.086832 -3.849720
  H 8.619269 -1.977823 -2.415644
  H 8.570610 -1.233885 -4.017164
  H 7.887536 -2.833012 -3.778612
