13

H 3.587586429922358 -0.597672568522839 -0.9852698258073674
C 4.657445 -0.605569 -1.000771
C 5.378095 -1.120845 -2.012342
C 6.81653 -1.130453 -2.031201
C 7.534042 -1.642749 -3.036932
C 9.02408 -1.662004 -3.074728
H 5.161861 -0.170622 -0.1469
H 4.874135 -1.555859 -2.866349
H 7.322683 -0.694949 -1.176234
H 7.035813 -2.080026 -3.895365
H 9.45782 -1.208784 -2.184984
H 9.383398 -1.116028 -3.948507
H 9.383398 -2.689803 -3.146855
