 20
 0.000000
  C 1.008420 -0.070725 0.049216
  C 2.504698 -0.083011 0.025097
  C 3.218186 -0.596514 -0.983000
  C 4.655418 -0.607171 -1.003919
  C 5.376735 -1.122059 -2.014730
  C 6.815113 -1.131000 -2.032280
  C 7.534836 -1.642384 -3.036218
  C 9.024818 -1.660919 -3.072597
  H 0.648173 0.395782 0.965043
  H 0.611965 -1.085133 0.011127
  H 0.611965 0.494895 -0.793721
  H 3.006973 0.351917 0.878935
  H 2.705298 -1.029458 -1.832929
  H 5.159353 -0.172177 -0.149957
  H 4.872888 -1.557038 -2.868667
  H 7.320546 -0.696266 -1.178821
  H 7.037302 -2.078900 -3.893153
  H 9.457344 -1.207535 -2.182534
  H 9.384685 -1.114846 -3.945950
  H 9.384686 -2.688438 -3.144393
 20
 13.076523
  C 1.063068 -0.127207 -0.136175
  C 2.541255 -0.109964 0.031847
  C 3.430464 -0.545138 -0.894379
  C 4.794544 -0.504765 -0.728000
  C 5.346281 -1.029238 -1.808280
  C 6.785710 -1.081953 -1.956468
  C 7.411862 -1.639455 -2.999224
  C 8.890049 -1.700104 -3.162222
  H 0.559905 0.275503 0.733142
  H 0.737943 -1.172920 -0.254349
  H 0.758929 0.361787 -1.058769
  H 2.912735 0.354335 0.934600
  H 3.030147 -1.016265 -1.775183
  H 5.290192 -0.060072 0.111616
  H 4.794033 -1.426162 -2.638276
  H 7.374484 -0.678177 -1.143756
  H 6.824244 -2.029500 -3.822378
  H 9.399024 -1.238779 -2.320254
  H 9.184275 -1.191323 -4.076577
  H 9.209624 -2.741870 -3.240925
 20
 43.593297
  C 1.130025 -0.252994 -0.338695
  C 2.562627 -0.106759 0.022169
  C 3.621505 -0.508803 -0.812205
  C 4.912907 -0.369653 -0.470018
  C 5.365231 -0.914046 -1.585517
  C 6.787932 -1.043931 -1.863577
  C 7.293584 -1.608906 -2.967232
  C 8.737411 -1.749539 -3.266479
  H 0.487580 0.154421 0.437233
  H 0.870070 -1.312661 -0.482416
  H 0.913201 0.264826 -1.274000
  H 2.785896 0.368839 0.960612
  H 3.245233 -0.967887 -1.708045
  H 5.391009 0.059087 0.384369
  H 4.797810 -1.312448 -2.405332
  H 7.470753 -0.663987 -1.107464
  H 6.624937 -1.991332 -3.723847
  H 9.341241 -1.318686 -2.476051
  H 8.981053 -1.250898 -4.213649
  H 8.999982 -2.801755 -3.374784
 20
 89.811345
  C 1.174720 -0.290478 -0.417042
  C 2.595112 -0.111516 -0.001749
  C 3.732227 -0.518145 -0.825721
  C 4.970844 -0.321007 -0.365878
  C 5.316841 -0.883171 -1.519376
  C 6.755387 -1.032905 -1.834773
  C 7.228746 -1.597013 -2.952945
  C 8.663644 -1.757789 -3.290932
  H 0.495291 0.105472 0.330480
  H 0.939575 -1.356547 -0.565728
  H 0.977852 0.220061 -1.361338
  H 2.780213 0.362878 0.940012
  H 3.292807 -0.960215 -1.692914
  H 5.443733 0.106058 0.484154
  H 4.814461 -1.301590 -2.359089
  H 7.464512 -0.657727 -1.098877
  H 6.536417 -1.971773 -3.692837
  H 9.294905 -1.338777 -2.513157
  H 8.889702 -1.259493 -4.237184
  H 8.909877 -2.819564 -3.412873
 20
 139.395316
  C 1.199338 -0.309960 -0.466733
  C 2.612619 -0.124144 -0.017159
  C 3.805201 -0.539205 -0.848460
  C 5.006782 -0.300824 -0.288048
  C 5.261314 -0.869197 -1.484110
  C 6.738458 -1.023863 -1.830914
  C 7.192212 -1.592585 -2.947154
  C 8.628238 -1.760051 -3.309729
  H 0.499320 0.087319 0.265179
  H 0.972199 -1.367100 -0.613313
  H 1.018487 0.197717 -1.416312
  H 2.780928 0.366398 0.929697
  H 3.287733 -0.967329 -1.686347
  H 5.470622 0.117282 0.551572
  H 4.822929 -1.312700 -2.352673
  H 7.460152 -0.648860 -1.111305
  H 6.484915 -1.973415 -3.676789
  H 9.275912 -1.335925 -2.542924
  H 8.838189 -1.269494 -4.256971
  H 8.870827 -2.824459 -3.428837
 20
 185.377619
  C 1.220261 -0.323678 -0.501384
  C 2.622213 -0.134104 -0.029069
  C 3.866230 -0.564230 -0.885530
  C 5.042055 -0.288760 -0.241797
  C 5.222186 -0.872686 -1.487317
  C 6.706577 -1.015529 -1.836827
  C 7.162373 -1.589984 -2.955201
  C 8.595516 -1.763554 -3.310987
  H 0.506047 0.075071 0.220132
  H 0.992884 -1.384092 -0.646090
  H 1.051904 0.187197 -1.451984
  H 2.795966 0.366783 0.922035
  H 3.290835 -0.968869 -1.686605
  H 5.507549 0.126495 0.610322
  H 4.817543 -1.332994 -2.362775
  H 7.426535 -0.629523 -1.121488
  H 6.456203 -1.976262 -3.681581
  H 9.241604 -1.333291 -2.550826
  H 8.808382 -1.275741 -4.260427
  H 8.838049 -2.823322 -3.431095
 20
 224.588625
  C 1.183616 -0.305388 -0.489511
  C 2.578684 -0.130514 -0.004673
  C 3.935627 -0.597700 -0.928131
  C 5.059807 -0.302802 -0.226730
  C 5.226704 -0.901625 -1.524943
  C 6.693920 -1.019860 -1.860049
  C 7.165845 -1.602695 -2.974818
  C 8.609838 -1.762394 -3.316854
  H 0.471823 0.095723 0.227016
  H 0.945084 -1.362596 -0.633235
  H 1.017232 0.213713 -1.438147
  H 2.750598 0.370650 0.938985
  H 3.317779 -0.985205 -1.711620
  H 5.500921 0.121998 0.629236
  H 4.852798 -1.393714 -2.418075
  H 7.402654 -0.619106 -1.149640
  H 6.467578 -2.005493 -3.705089
  H 9.244475 -1.315555 -2.557873
  H 8.823802 -1.278273 -4.275507
  H 8.863531 -2.810017 -3.427436
 20
 207.124679
  C 0.782695 0.099710 -0.161181
  C 2.193944 -0.045042 0.239446
  C 4.019942 -1.011948 -1.130731
  C 5.026188 -0.934490 -0.362241
  C 5.375136 -1.376142 -1.889592
  C 6.768672 -1.157313 -2.120451
  C 7.460435 -1.680350 -3.142084
  C 8.925316 -1.480991 -3.341989
  H 0.129442 0.673262 0.509141
  H 0.361036 -0.898713 -0.298926
  H 0.757511 0.580808 -1.142111
  H 2.440579 0.548024 1.138103
  H 3.161326 -1.164594 -1.721267
  H 5.472329 -0.571480 0.523363
  H 4.978935 -2.083371 -2.617029
  H 7.311350 -0.539426 -1.414828
  H 6.963977 -2.310959 -3.865521
  H 9.337705 -0.832173 -2.572369
  H 9.120714 -1.031269 -4.316857
  H 9.457429 -2.434560 -3.315371
 20
 195.406612
  C 0.684855 0.211483 -0.098192
  C 2.094182 0.027133 0.286113
  C 4.047357 -1.092594 -1.197466
  C 5.034761 -1.063598 -0.392484
  C 5.406494 -1.478176 -1.967051
  C 6.790471 -1.189240 -2.172579
  C 7.526217 -1.691040 -3.169087
  C 8.981224 -1.416193 -3.348693
  H 0.054832 0.804669 0.577794
  H 0.228920 -0.777017 -0.200661
  H 0.670804 0.683717 -1.082053
  H 2.351189 0.632958 1.173253
  H 3.150760 -1.219661 -1.736889
  H 5.465072 -0.723286 0.509780
  H 5.027989 -2.240461 -2.647795
  H 7.277623 -0.529472 -1.464883
  H 7.076691 -2.362392 -3.887497
  H 9.344981 -0.733498 -2.584662
  H 9.169190 -0.975945 -4.329276
  H 9.561524 -2.339679 -3.293106
