 14
 0.000000
  C 0.910115 0.051490 0.219609
  C 2.402290 0.056347 0.109822
  H 2.956181 0.006733 1.037092
  C 3.059485 0.121640 -1.047880
  H 2.542985 0.173630 -1.996632
  C 4.498795 0.128186 -1.142800
  C 5.171977 0.192786 -2.292575
  O 6.521521 0.200956 -2.414357
  H 0.589779 -0.015928 1.256933
  H 0.484924 -0.797853 -0.314405
  H 0.486577 0.964665 -0.198292
  H 5.056842 0.077066 -0.214004
  H 4.698888 0.246265 -3.261936
  H 6.926920 0.152649 -1.538830
 14
 5.803045
  C 0.907039 0.010887 0.222274
  C 2.372979 0.046129 0.110231
  H 2.967464 -0.000808 1.067897
  C 3.049501 0.106989 -1.036923
  H 2.512455 0.146359 -1.977240
  C 4.491034 0.135414 -1.127820
  C 5.153648 0.197526 -2.284811
  O 6.498511 0.219619 -2.425671
  H 0.538631 -0.005560 1.244815
  H 0.431616 -0.789508 -0.347947
  H 0.764464 0.973296 -0.253004
  H 5.042788 0.099936 -0.195652
  H 4.657951 0.233628 -3.243084
  H 6.915439 0.185153 -1.555706
 14
 18.359715
  C 0.905537 -0.002330 0.229629
  C 2.353902 0.023270 0.112571
  H 2.963496 -0.033404 1.049652
  C 3.033524 0.075079 -1.036079
  H 2.498542 0.089400 -1.978854
  C 4.467954 0.141500 -1.124086
  C 5.133940 0.194939 -2.279885
  O 6.483684 0.248504 -2.416407
  H 0.515543 0.012657 1.227356
  H 0.394681 -0.722816 -0.390760
  H 1.013006 0.957544 -0.224011
  H 5.015470 0.140150 -0.189079
  H 4.640486 0.195202 -3.241018
  H 6.893102 0.243459 -1.548800
 14
 32.243014
  C 0.886138 -0.021961 0.241161
  C 2.337750 0.034266 0.096584
  H 2.958745 -0.002640 1.037904
  C 3.022973 0.068655 -1.053553
  H 2.492506 0.056272 -1.999597
  C 4.458350 0.145821 -1.134520
  C 5.133631 0.181511 -2.284407
  O 6.485359 0.257816 -2.407715
  H 0.497921 -0.037096 1.247695
  H 0.346547 -0.664099 -0.437746
  H 1.174874 0.945544 -0.147618
  H 5.002270 0.173172 -0.196842
  H 4.653664 0.155887 -3.251072
  H 6.886102 0.277903 -1.532111
 14
 43.655890
  C 0.873734 -0.041361 0.251991
  C 2.327894 0.038481 0.079375
  H 2.942972 0.030044 1.024930
  C 3.018502 0.056408 -1.075211
  H 2.490226 0.004614 -2.025846
  C 4.447039 0.172138 -1.146546
  C 5.136885 0.184180 -2.290036
  O 6.490760 0.249892 -2.396323
  H 0.501956 -0.111718 1.258140
  H 0.299352 -0.576590 -0.484119
  H 1.310723 0.935320 -0.046826
  H 4.981556 0.233096 -0.205571
  H 4.670628 0.113121 -3.261967
  H 6.878430 0.293622 -1.512910
 14
 52.135423
  C 0.862904 -0.053460 0.261196
  C 2.315998 0.048365 0.067582
  H 2.909833 0.063032 1.004998
  C 3.015717 0.044265 -1.091333
  H 2.489181 -0.024598 -2.038952
  C 4.445511 0.154389 -1.157161
  C 5.144057 0.159269 -2.294898
  O 6.498240 0.275145 -2.392107
  H 0.501295 -0.154840 1.268824
  H 0.262467 -0.506214 -0.511648
  H 1.420099 0.922779 0.020935
  H 4.983236 0.239814 -0.192686
  H 4.683484 0.083631 -3.269877
  H 6.879587 0.342175 -1.510540
 14
 58.571114
  C 0.859486 -0.076329 0.266269
  C 2.313494 0.063800 0.072914
  H 2.911573 0.084921 1.003159
  C 3.014000 0.048661 -1.096777
  H 2.482695 -0.039723 -2.045898
  C 4.434993 0.178994 -1.162913
  C 5.142720 0.168647 -2.299956
  O 6.500640 0.258635 -2.390449
  H 0.490324 -0.192463 1.262171
  H 0.257982 -0.472934 -0.532527
  H 1.500151 0.910572 0.055926
  H 4.970636 0.275149 -0.210973
  H 4.702307 0.069326 -3.253939
  H 6.876743 0.334183 -1.502607
 14
 63.495934
  C 0.854433 -0.100469 0.263660
  C 2.312038 0.083724 0.081388
  H 2.916754 0.105714 1.020968
  C 3.016210 0.050691 -1.096012
  H 2.480172 -0.045140 -2.035384
  C 4.438010 0.172898 -1.163251
  C 5.147874 0.156705 -2.298599
  O 6.504018 0.266204 -2.384586
  H 0.470171 -0.217210 1.257528
  H 0.264327 -0.448913 -0.559997
  H 1.561565 0.918116 0.074023
  H 4.972561 0.280138 -0.219777
  H 4.698400 0.058102 -3.277478
  H 6.874909 0.348483 -1.497281
 14
 67.470300
  C 0.854416 -0.129244 0.261610
  C 2.313176 0.099771 0.090954
  H 2.921381 0.112767 1.032385
  C 3.021140 0.049244 -1.095170
  H 2.483112 -0.059412 -2.028238
  C 4.437311 0.182052 -1.164813
  C 5.147108 0.159486 -2.302920
  O 6.504028 0.263292 -2.386267
  H 0.455665 -0.234313 1.247128
  H 0.268323 -0.426960 -0.583543
  H 1.620229 0.932371 0.086582
  H 4.971566 0.301252 -0.223139
  H 4.700613 0.052062 -3.276355
  H 6.870721 0.348378 -1.495707
 14
 69.599577
  C 0.862678 -0.178586 0.257865
  C 2.309998 0.127112 0.098707
  H 2.917109 0.120388 1.035222
  C 3.025560 0.062193 -1.095458
  H 2.486659 -0.050723 -2.023402
  C 4.438331 0.195398 -1.166453
  C 5.150712 0.159115 -2.304658
  O 6.508295 0.254031 -2.387238
  H 0.446929 -0.263020 1.239275
  H 0.272116 -0.414752 -0.600719
  H 1.668716 0.971685 0.104153
  H 4.971028 0.312451 -0.224334
  H 4.702074 0.028175 -3.277031
  H 6.871543 0.353185 -1.496485
 14
 70.164772
  C 0.873449 -0.224150 0.255248
  C 2.306601 0.144424 0.109114
  H 2.913347 0.114527 1.041638
  C 3.029156 0.063927 -1.096013
  H 2.487890 -0.055070 -2.016040
  C 4.435318 0.206634 -1.166825
  C 5.151438 0.164742 -2.306706
  O 6.508592 0.250887 -2.383387
  H 0.438395 -0.270065 1.229266
  H 0.279653 -0.411530 -0.613469
  H 1.730075 1.022594 0.106524
  H 4.968030 0.325757 -0.229547
  H 4.704703 0.019580 -3.282049
  H 6.870708 0.356552 -1.491498
 14
 68.394362
  C 0.885853 -0.267989 0.255629
  C 2.299172 0.160128 0.114733
  H 2.901426 0.093669 1.044504
  C 3.034861 0.044180 -1.098073
  H 2.489893 -0.078739 -2.019301
  C 4.433248 0.178976 -1.165102
  C 5.154295 0.149041 -2.306789
  O 6.507644 0.286055 -2.383069
  H 0.427497 -0.251725 1.222512
  H 0.278633 -0.399539 -0.615327
  H 1.817131 1.096837 0.095946
  H 4.964553 0.318351 -0.226802
  H 4.709698 0.026606 -3.279254
  H 6.866651 0.395572 -1.490753
 14
 67.116107
  C 0.895403 -0.304925 0.254632
  C 2.291933 0.176980 0.121146
  H 2.890929 0.086303 1.049565
  C 3.039039 0.042675 -1.098122
  H 2.491269 -0.083603 -2.016407
  C 4.431988 0.177675 -1.163776
  C 5.157959 0.150892 -2.308168
  O 6.509106 0.299111 -2.382493
  H 0.422841 -0.239076 1.213815
  H 0.287518 -0.408009 -0.619439
  H 1.893085 1.149991 0.085593
  H 4.962006 0.330066 -0.227597
  H 4.712704 0.033806 -3.281549
  H 6.868545 0.410848 -1.490044
