 18
 0.000000
  H 1.319564 0.050372 0.025294
  C 2.395761 0.054903 -0.017750
  C 3.131065 -0.028374 1.287325
  H 2.472109 -0.067816 2.146059
  C 3.042789 0.130494 -1.170814
  C 2.465483 0.218879 -2.552364
  C 0.942504 0.209064 -2.645617
  C 0.482273 0.300322 -4.097312
  H 4.125863 0.130744 -1.164883
  H 3.782969 0.838505 1.400078
  H 3.768604 -0.913198 1.298516
  H 2.863232 -0.615796 -3.142389
  H 2.845544 1.133759 -3.023151
  H 0.533956 1.054710 -2.089600
  H 0.553253 -0.711201 -2.206334
  H 0.842582 1.218664 -4.556484
  H -0.604063 0.292542 -4.155497
  H 0.861349 -0.541461 -4.673267
 18
 -0.348256
  H 1.333476 0.160208 0.010799
  C 2.410116 0.092587 -0.031535
  C 3.127338 -0.017468 1.281340
  H 2.447185 -0.302409 2.079407
  C 3.051734 0.095453 -1.186987
  C 2.480838 0.193880 -2.567937
  C 0.957019 0.220883 -2.641998
  C 0.472682 0.300690 -4.084947
  H 4.134913 0.027583 -1.174917
  H 3.584813 0.935707 1.547495
  H 3.919989 -0.761430 1.210984
  H 2.854396 -0.653467 -3.152861
  H 2.878937 1.098452 -3.041020
  H 0.582018 1.083685 -2.087971
  H 0.556667 -0.681409 -2.175271
  H 0.847092 1.202722 -4.564704
  H -0.614080 0.318210 -4.124135
  H 0.821940 -0.558632 -4.653844
 18
 -0.287740
  H 1.350697 0.358436 0.021072
  C 2.413876 0.176602 -0.025218
  C 3.126596 -0.012803 1.278591
  H 2.480860 -0.499057 2.006371
  C 3.045775 0.065795 -1.180741
  C 2.479145 0.180437 -2.562985
  C 0.955325 0.218957 -2.636597
  C 0.469413 0.286769 -4.079417
  H 4.122950 -0.064386 -1.170671
  H 3.452397 0.941134 1.691156
  H 3.992740 -0.646747 1.101432
  H 2.847834 -0.666276 -3.151239
  H 2.883191 1.084504 -3.032743
  H 0.587454 1.090594 -2.091922
  H 0.549374 -0.674198 -2.157021
  H 0.844735 1.184000 -4.567589
  H -0.617380 0.305321 -4.117548
  H 0.817457 -0.577878 -4.641095
 18
 0.462518
  H 1.410235 0.544246 0.004834
  C 2.453913 0.249645 -0.037734
  C 3.122043 -0.027460 1.285397
  H 2.512207 -0.725466 1.869718
  C 3.069476 0.044179 -1.195876
  C 2.479404 0.179387 -2.572090
  C 0.953772 0.244569 -2.628620
  C 0.449481 0.247583 -4.070532
  H 4.144926 -0.079161 -1.192447
  H 3.253490 0.875383 1.879812
  H 4.096978 -0.498683 1.091202
  H 2.825507 -0.674286 -3.168286
  H 2.897541 1.077257 -3.048634
  H 0.605923 1.150719 -2.127466
  H 0.537713 -0.613848 -2.095661
  H 0.823941 1.119450 -4.607329
  H -0.640662 0.271347 -4.096055
  H 0.787042 -0.645510 -4.595977
 18
 10.969786
  H 1.548196 0.987457 -0.011463
  C 2.476325 0.438750 -0.043997
  C 3.064527 -0.068551 1.232448
  H 2.432486 -0.875324 1.616673
  C 3.097392 0.123664 -1.178381
  C 2.502742 0.210172 -2.555107
  C 0.976498 0.222526 -2.590981
  C 0.450112 0.166537 -4.018745
  H 4.178590 0.073601 -1.186093
  H 3.203507 0.667228 2.008180
  H 3.935766 -0.612905 0.885589
  H 2.864289 -0.654925 -3.118375
  H 2.883278 1.097800 -3.075943
  H 0.603752 1.127707 -2.108582
  H 0.599277 -0.630365 -2.029975
  H 0.753205 1.053478 -4.575114
  H -0.636104 0.111340 -4.023992
  H 0.837245 -0.712630 -4.535718
 18
 29.718557
  H 1.604641 1.217682 0.054416
  C 2.440601 0.539154 -0.006247
  C 3.046877 -0.101348 1.200433
  H 2.491210 -0.997665 1.501716
  C 3.054743 0.170339 -1.133662
  C 2.505885 0.243007 -2.536432
  C 0.980207 0.187701 -2.583711
  C 0.465816 0.104101 -4.015162
  H 4.132546 0.239198 -1.156820
  H 3.220138 0.532410 2.052626
  H 3.834885 -0.657796 0.655768
  H 2.908198 -0.618088 -3.073751
  H 2.845506 1.161175 -3.028220
  H 0.582413 1.093878 -2.122902
  H 0.628310 -0.665790 -2.005679
  H 0.842159 0.942082 -4.602662
  H -0.618191 0.137922 -4.037193
  H 0.797933 -0.817332 -4.490551
 18
 59.195740
  H 1.705298 1.467602 0.097470
  C 2.443799 0.675658 0.028160
  C 2.960629 -0.128413 1.153503
  H 2.483856 -1.104140 1.294193
  C 3.081848 0.238066 -1.091184
  C 2.518762 0.243052 -2.500513
  C 0.992248 0.183253 -2.553599
  C 0.480893 0.057618 -3.983705
  H 4.155054 0.379161 -1.117963
  H 3.166633 0.340750 2.108169
  H 3.653422 -0.684989 0.376266
  H 2.935686 -0.622500 -3.030674
  H 2.875005 1.128557 -3.050608
  H 0.586018 1.091408 -2.105391
  H 0.649714 -0.663715 -1.953343
  H 0.756095 0.939771 -4.561463
  H -0.601863 -0.035216 -3.998865
  H 0.912575 -0.814413 -4.471355
 18
 79.967822
  H 1.795480 1.583267 0.098155
  C 2.471956 0.744374 0.052881
  C 2.832749 -0.112045 1.111948
  H 2.401828 -1.100519 1.154087
  C 3.141568 0.239985 -1.081021
  C 2.559888 0.240298 -2.482928
  C 1.034510 0.164900 -2.499358
  C 0.491201 0.034039 -3.916604
  H 4.214325 0.409921 -1.116467
  H 2.984034 0.286736 2.116638
  H 3.561390 -0.718385 -0.042944
  H 2.966103 -0.619617 -3.026098
  H 2.887529 1.138464 -3.019156
  H 0.621275 1.062473 -2.037517
  H 0.713072 -0.691965 -1.902643
  H 0.763407 0.903340 -4.511457
  H -0.593188 -0.047863 -3.905815
  H 0.896625 -0.851581 -4.401590
 18
 59.926614
  H 1.847743 1.646391 0.059616
  C 2.520305 0.803513 0.075395
  C 2.657164 -0.072697 1.096540
  H 2.347510 -1.103897 0.975482
  C 3.249286 0.252738 -1.100932
  C 2.618885 0.210156 -2.479045
  C 1.095837 0.147436 -2.416307
  C 0.488704 -0.000235 -3.808118
  H 4.329340 0.445369 -1.143328
  H 2.651834 0.192856 2.152600
  H 3.506808 -0.672393 -0.456662
  H 3.006011 -0.652398 -3.034137
  H 2.917072 1.104069 -3.035107
  H 0.720280 1.065783 -1.966705
  H 0.788689 -0.670908 -1.774912
  H 0.743295 0.870067 -4.425101
  H -0.594198 -0.062312 -3.746353
  H 0.875739 -0.878128 -4.313194
 18
 39.516825
  H 2.028912 1.679209 0.025949
  C 2.597695 0.772626 0.088619
  C 2.673268 -0.029725 1.167694
  H 2.327954 -1.049274 1.145355
  C 3.211569 0.103202 -1.094677
  C 2.596679 0.238701 -2.479832
  C 1.073507 0.116183 -2.453412
  C 0.487570 0.025765 -3.856115
  H 4.257664 0.456460 -1.139460
  H 2.679297 0.374600 2.176608
  H 3.460240 -0.861948 -0.584409
  H 2.987972 -0.559871 -3.113438
  H 2.882272 1.196062 -2.908796
  H 0.643158 0.965127 -1.927425
  H 0.804189 -0.785225 -1.897448
  H 0.763028 0.896893 -4.447926
  H -0.596897 -0.037243 -3.812441
  H 0.849300 -0.866430 -4.361556
 18
 24.697239
  H 2.038382 1.672149 -0.029807
  C 2.595069 0.754469 0.067140
  C 2.589359 -0.000503 1.160630
  H 2.439581 -1.066739 1.133718
  C 3.269480 0.129280 -1.115041
  C 2.614606 0.188806 -2.487058
  C 1.091108 0.116451 -2.425471
  C 0.476115 0.051832 -3.816485
  H 4.323547 0.436498 -1.158591
  H 2.456345 0.399100 2.160416
  H 3.444662 -0.877933 -0.692184
  H 2.980265 -0.646396 -3.088337
  H 2.919288 1.103372 -3.002383
  H 0.704834 0.991108 -1.904200
  H 0.798042 -0.767700 -1.855417
  H 0.689576 0.961775 -4.371899
  H -0.603861 -0.066731 -3.752662
  H 0.877866 -0.790478 -4.372266
 18
 11.702542
  H 2.048202 1.583799 -0.108544
  C 2.594056 0.666247 0.052655
  C 2.561606 0.035470 1.219817
  H 2.639764 -1.034730 1.319391
  C 3.272411 0.035097 -1.121421
  C 2.612802 0.184674 -2.490325
  C 1.090057 0.071309 -2.434340
  C 0.473946 0.090653 -3.828219
  H 4.290520 0.444431 -1.156232
  H 2.307025 0.579352 2.129649
  H 3.442554 -1.002954 -0.832711
  H 2.994298 -0.598445 -3.149934
  H 2.890401 1.144951 -2.928579
  H 0.679293 0.896711 -1.851147
  H 0.819696 -0.857413 -1.927371
  H 0.715004 1.021394 -4.338818
  H -0.608306 0.001550 -3.770226
  H 0.854401 -0.734991 -4.427137
 18
 4.146564
  H 2.245963 1.653781 -0.156815
  C 2.636202 0.661664 0.026181
  C 2.487205 0.088626 1.206861
  H 2.651617 -0.962370 1.373813
  C 3.293206 -0.022245 -1.128452
  C 2.618905 0.188360 -2.484165
  C 1.102928 0.009543 -2.420970
  C 0.465717 0.115634 -3.801162
  H 4.327133 0.341349 -1.179860
  H 2.125907 0.651667 2.052765
  H 3.376233 -1.081780 -0.879140
  H 3.026472 -0.533937 -3.195595
  H 2.854212 1.187272 -2.859209
  H 0.670822 0.767912 -1.766032
  H 0.875710 -0.967323 -1.987792
  H 0.639173 1.101735 -4.227303
  H -0.608041 -0.046476 -3.741057
  H 0.888367 -0.626303 -4.475562
 18
 1.607780
  H 2.543405 1.740667 -0.197833
  C 2.712861 0.687561 -0.001736
  C 2.402733 0.177778 1.172388
  H 2.562762 -0.867626 1.395819
  C 3.312210 -0.086584 -1.130682
  C 2.618923 0.202579 -2.468094
  C 1.121514 -0.096431 -2.417561
  C 0.452814 0.134051 -3.766261
  H 4.368359 0.191426 -1.212823
  H 1.983933 0.778887 1.966029
  H 3.266823 -1.153498 -0.904456
  H 3.078557 -0.413666 -3.247963
  H 2.772875 1.250950 -2.739318
  H 0.650739 0.537505 -1.664858
  H 0.973619 -1.134254 -2.110715
  H 0.554121 1.173735 -4.068469
  H -0.607837 -0.106735 -3.714481
  H 0.909322 -0.489239 -4.532480
 18
 1.306976
  H 2.597871 1.754586 -0.197805
  C 2.727457 0.697398 -0.004226
  C 2.389210 0.190617 1.166647
  H 2.508393 -0.858670 1.385027
  C 3.314310 -0.089538 -1.133917
  C 2.619913 0.205493 -2.465201
  C 1.127260 -0.115465 -2.416470
  C 0.450389 0.133790 -3.759062
  H 4.374540 0.172457 -1.224579
  H 1.981287 0.797910 1.957714
  H 3.250161 -1.156319 -0.911494
  H 3.088406 -0.390901 -3.251941
  H 2.757741 1.259288 -2.720999
  H 0.651099 0.497515 -1.647621
  H 0.995139 -1.161712 -2.130136
  H 0.540628 1.180248 -4.043910
  H -0.606082 -0.117445 -3.708272
  H 0.910008 -0.472145 -4.537249
