 32
 0.000000
  C 0.906916 0.049764 0.266400
  C 2.400656 0.059344 0.086172
  C 3.243049 -0.012019 1.353799
  C 2.527351 -0.089459 2.700536
  C 3.525758 -0.153158 3.850420
  C 2.995039 0.127279 -1.120350
  C 2.352806 0.204783 -2.494171
  C 0.841475 0.217375 -2.714604
  C 0.516810 0.301263 -4.203319
  C 4.454397 0.131968 -1.206679
  C 5.194331 0.194271 -2.313750
  O 6.554411 0.194998 -2.329073
  H 0.591815 -0.007077 1.304446
  H 0.466448 -0.817357 -0.219882
  H 0.467051 0.965509 -0.121322
  H 3.887698 0.873009 1.384626
  H 3.891580 -0.893296 1.284599
  H 1.895429 -0.979937 2.741776
  H 1.892821 0.788770 2.842068
  H 4.162558 -1.032084 3.765201
  H 2.998722 -0.207859 4.801266
  H 4.159928 0.731662 3.865175
  H 2.740722 -0.644108 -3.068610
  H 2.740927 1.112744 -2.969624
  H 0.388716 1.078599 -2.224417
  H 0.388527 -0.693356 -2.324212
  H 0.925370 1.210437 -4.641273
  H -0.561716 0.309655 -4.350152
  H 0.925175 -0.553069 -4.740607
  H 4.999612 0.079404 -0.274651
  H 4.817925 0.251144 -3.321976
  H 6.883463 0.143839 -1.421963
 32
 -0.362751
  C 0.904647 -0.219157 0.250424
  C 2.392916 -0.081026 0.079678
  C 3.231525 -0.123747 1.343917
  C 2.507763 -0.016011 2.688369
  C 3.518464 0.066527 3.828133
  C 2.995077 0.050545 -1.121940
  C 2.353322 0.190154 -2.485777
  C 0.841317 0.264639 -2.686703
  C 0.529641 0.462234 -4.167578
  C 4.457661 0.060583 -1.215277
  C 5.198646 0.219122 -2.313492
  O 6.553391 0.186107 -2.328420
  H 0.641871 -0.414924 1.281067
  H 0.527178 -1.045707 -0.344353
  H 0.385297 0.685301 -0.053320
  H 3.944395 0.704792 1.308793
  H 3.807223 -1.057111 1.351791
  H 1.874424 -0.887309 2.857477
  H 1.883155 0.877930 2.704489
  H 4.150981 -0.819975 3.844223
  H 3.007154 0.139290 4.786547
  H 4.157354 0.940943 3.714499
  H 2.724607 -0.641229 -3.095658
  H 2.768971 1.107434 -2.915833
  H 0.424553 1.103055 -2.130660
  H 0.358254 -0.652143 -2.354560
  H 0.978333 1.382417 -4.536068
  H -0.544903 0.518529 -4.326117
  H 0.919240 -0.366295 -4.755413
  H 5.008507 -0.111815 -0.301651
  H 4.822850 0.391565 -3.307838
  H 6.885506 0.029497 -1.430450
 32
 -0.278779
  C 0.919065 -0.370489 0.252535
  C 2.394386 -0.140756 0.078976
  C 3.217148 -0.222377 1.353439
  C 2.512401 0.095801 2.667984
  C 3.520619 0.141133 3.809619
  C 2.994945 0.030448 -1.116318
  C 2.354783 0.212068 -2.480185
  C 0.841805 0.265048 -2.691638
  C 0.536242 0.520666 -4.167168
  C 4.455782 0.062692 -1.208116
  C 5.193657 0.244913 -2.303906
  O 6.551022 0.227105 -2.320609
  H 0.704247 -0.646522 1.275004
  H 0.582166 -1.186082 -0.380581
  H 0.336533 0.517277 0.018621
  H 4.048247 0.477256 1.285107
  H 3.624843 -1.238398 1.422913
  H 1.763375 -0.659062 2.913705
  H 2.014076 1.064097 2.590921
  H 4.023895 -0.818254 3.911764
  H 3.022124 0.367527 4.748811
  H 4.273297 0.904985 3.630988
  H 2.747719 -0.583769 -3.121914
  H 2.752672 1.155630 -2.867614
  H 0.405283 1.070013 -2.101864
  H 0.373127 -0.675861 -2.405073
  H 0.970500 1.464808 -4.493941
  H -0.538488 0.563494 -4.331394
  H 0.945191 -0.275079 -4.786635
  H 5.008492 -0.119126 -0.298449
  H 4.814391 0.422749 -3.296352
  H 6.885321 0.064805 -1.426327
 32
 -0.683021
  C 0.969959 -0.607153 0.219576
  C 2.431266 -0.287953 0.066880
  C 3.217559 -0.357102 1.360784
  C 2.501128 0.195477 2.597800
  C 3.467291 0.309695 3.771876
  C 3.026023 -0.037153 -1.116962
  C 2.367372 0.191505 -2.466644
  C 0.854035 0.301674 -2.639001
  C 0.525365 0.647530 -4.089251
  C 4.482938 0.023478 -1.217852
  C 5.210153 0.307263 -2.299878
  O 6.569603 0.289456 -2.333240
  H 0.763869 -0.966778 1.222236
  H 0.677955 -1.392304 -0.472934
  H 0.338798 0.260524 0.044657
  H 4.131601 0.226102 1.267848
  H 3.499093 -1.400644 1.542944
  H 1.673354 -0.445513 2.902366
  H 2.095960 1.182416 2.364562
  H 3.882492 -0.664845 4.019738
  H 2.955684 0.696857 4.649795
  H 4.289552 0.980752 3.533220
  H 2.725782 -0.594638 -3.140610
  H 2.782437 1.135780 -2.834369
  H 0.459238 1.087620 -1.996046
  H 0.360284 -0.634917 -2.391950
  H 0.980842 1.594349 -4.373112
  H -0.550633 0.731319 -4.226045
  H 0.896582 -0.124315 -4.760765
  H 5.046825 -0.251669 -0.337215
  H 4.820863 0.581759 -3.267552
  H 6.912944 0.040235 -1.466173
 32
 -0.959102
  C 0.965640 -0.610243 0.218924
  C 2.432777 -0.305985 0.065837
  C 3.182312 -0.454848 1.374453
  C 2.559154 0.301343 2.554234
  C 3.465692 0.236065 3.778507
  C 3.030270 -0.026813 -1.109863
  C 2.368585 0.198425 -2.458729
  C 0.853363 0.255008 -2.638428
  C 0.520470 0.595873 -4.088839
  C 4.482972 0.094310 -1.210179
  C 5.199586 0.362357 -2.303593
  O 6.557494 0.427705 -2.330357
  H 0.768959 -0.961787 1.226408
  H 0.661512 -1.399263 -0.463848
  H 0.342355 0.262049 0.042509
  H 4.201630 -0.087927 1.294153
  H 3.223123 -1.527311 1.597488
  H 1.586559 -0.107017 2.827271
  H 2.413373 1.344337 2.264654
  H 3.624010 -0.797555 4.080334
  H 3.018653 0.772026 4.612809
  H 4.435555 0.682340 3.567522
  H 2.755045 -0.570828 -3.136365
  H 2.753920 1.158691 -2.817299
  H 0.425564 1.022562 -1.993968
  H 0.393454 -0.701573 -2.398354
  H 0.942345 1.560124 -4.365192
  H -0.556949 0.640667 -4.231432
  H 0.923578 -0.158038 -4.762036
  H 5.058010 -0.088957 -0.313002
  H 4.802535 0.553736 -3.286384
  H 6.909565 0.252324 -1.448132
 32
 -2.105689
  C 0.946024 -0.670029 0.213706
  C 2.418509 -0.382002 0.066234
  C 3.142820 -0.583182 1.378470
  C 2.661914 0.380595 2.470240
  C 3.493504 0.235751 3.739403
  C 3.017885 -0.043231 -1.091415
  C 2.364886 0.191694 -2.443489
  C 0.850701 0.221207 -2.638164
  C 0.525963 0.584802 -4.084940
  C 4.464270 0.150055 -1.167868
  C 5.186825 0.429741 -2.254411
  O 6.537332 0.586571 -2.254765
  H 0.737215 -1.028615 1.218162
  H 0.628530 -1.443954 -0.480001
  H 0.338813 0.215348 0.046173
  H 4.217034 -0.447749 1.289745
  H 2.971111 -1.618984 1.689791
  H 1.614323 0.202976 2.714626
  H 2.744692 1.402830 2.093633
  H 3.425140 -0.779254 4.126073
  H 3.140080 0.919740 4.507753
  H 4.540949 0.455763 3.542757
  H 2.772073 -0.562128 -3.126019
  H 2.735710 1.163004 -2.786492
  H 0.400309 0.966443 -1.983221
  H 0.408538 -0.749519 -2.422599
  H 0.929132 1.563734 -4.336438
  H -0.550542 0.608704 -4.238842
  H 0.953137 -0.145845 -4.768883
  H 5.028332 0.043345 -0.251644
  H 4.800811 0.559985 -3.251532
  H 6.879676 0.466220 -1.359497
 32
 -2.982934
  C 0.895945 -0.715800 0.204778
  C 2.371361 -0.452003 0.062526
  C 3.082289 -0.690804 1.370728
  C 2.800417 0.434764 2.375519
  C 3.573979 0.234188 3.673198
  C 2.982164 -0.058792 -1.070915
  C 2.353542 0.184109 -2.433063
  C 0.841953 0.192010 -2.649833
  C 0.530737 0.571636 -4.095771
  C 4.421360 0.201800 -1.096305
  C 5.171694 0.486227 -2.163967
  O 6.504151 0.731023 -2.116767
  H 0.686658 -1.062130 1.212476
  H 0.564184 -1.485783 -0.484639
  H 0.304886 0.177828 0.032188
  H 4.161303 -0.780484 1.259981
  H 2.730696 -1.639591 1.776145
  H 1.733583 0.480569 2.597940
  H 3.083916 1.387200 1.922394
  H 3.305940 -0.714634 4.134565
  H 3.352540 1.032843 4.378097
  H 4.646420 0.231123 3.486398
  H 2.783184 -0.558870 -3.114607
  H 2.717147 1.163320 -2.762383
  H 0.370410 0.919853 -1.990177
  H 0.413943 -0.789274 -2.453917
  H 0.919194 1.561430 -4.326631
  H -0.543633 0.578177 -4.264870
  H 0.980959 -0.140474 -4.784340
  H 4.946211 0.173799 -0.150050
  H 4.821132 0.550673 -3.178308
  H 6.814479 0.669518 -1.202680
