20

C 0.976221 0.137423 0.392971
C 2.454013 0.139037 0.396453
H 3.0173091434785757 0.47817093259455046 1.2406008724163908
C 3.075154 -0.323445 -0.755457
C 4.453051 -0.41132 -0.97438
C 5.123091 -0.863652 -2.101643
C 4.621539 -1.386299 -3.404214
C 3.129631 -1.502892 -3.695488
H 2.969314730569851 -1.8968356138042937 -4.677326644023963
O 6.448357 -0.861732 -2.096972
H 0.536623 0.506728 1.312591
H 0.607225 -0.875602 0.225656
H 0.606888 0.75315 -0.42852
H 2.419676 -0.641874 -1.548482
H 5.074642 -0.080448 -0.15012
H 5.074798 -2.376186 -3.531176
H 5.075111 -0.758952 -4.180234
H 2.655258 -0.521998 -3.641322
H 2.654907 -2.17409 -2.978375
H 6.824653 -0.526795 -1.261478
