 32
 0.000000
  C 0.952886 0.147002 0.412387
  C 2.426808 0.143727 0.396538
  C 3.225734 0.607164 1.556537
  C 2.464370 1.097192 2.785494
  C 3.436293 1.533893 3.877521
  C 3.035241 -0.321002 -0.766141
  C 4.411459 -0.404632 -0.970222
  C 5.103678 -0.857441 -2.089112
  C 4.617147 -1.383776 -3.394059
  C 3.130026 -1.505150 -3.701430
  C 2.935322 -2.071925 -5.105497
  O 6.422534 -0.849409 -2.062700
  H 0.532223 0.511749 1.341449
  H 0.579363 -0.862426 0.233660
  H 0.574231 0.760217 -0.406136
  H 3.883113 1.416275 1.219077
  H 3.884387 -0.210947 1.868694
  H 1.829175 0.302292 3.179912
  H 1.827831 1.944240 2.524299
  H 4.072286 0.707364 4.186678
  H 2.891408 1.882292 4.751381
  H 4.071026 2.346938 3.532128
  H 2.373145 -0.636681 -1.553836
  H 5.037426 -0.074955 -0.149431
  H 5.081495 -2.369572 -3.513163
  H 5.084625 -0.758896 -4.163879
  H 2.651379 -0.526586 -3.657091
  H 2.648373 -2.176919 -2.990538
  H 3.385759 -1.423978 -5.853713
  H 1.875997 -2.161502 -5.332126
  H 3.382860 -3.059140 -5.193207
  H 6.803121 -0.512159 -1.230357
 32
 2.446378
  C 1.000931 0.202344 0.365098
  C 2.459017 0.134536 0.409688
  C 3.254632 0.571250 1.580284
  C 2.478023 1.090900 2.788528
  C 3.435244 1.497107 3.905384
  C 3.038391 -0.345034 -0.760415
  C 4.396502 -0.411641 -0.981512
  C 5.078649 -0.824205 -2.106618
  C 4.609629 -1.363068 -3.409157
  C 3.123526 -1.550016 -3.688706
  C 2.927062 -2.118902 -5.091888
  O 6.381538 -0.732298 -2.057822
  H 0.535341 0.608360 1.253530
  H 0.580832 -0.784013 0.167044
  H 0.756438 0.815835 -0.506263
  H 3.949551 1.354824 1.256954
  H 3.878110 -0.268840 1.908144
  H 1.806103 0.318578 3.166182
  H 1.878905 1.958580 2.507978
  H 4.034107 0.650080 4.232650
  H 2.880193 1.866497 4.764133
  H 4.106469 2.286842 3.575312
  H 2.364965 -0.645785 -1.543696
  H 5.026730 -0.070975 -0.168694
  H 5.120446 -2.324426 -3.541615
  H 5.038511 -0.712777 -4.180963
  H 2.603964 -0.593668 -3.630454
  H 2.687905 -2.245373 -2.970905
  H 3.334233 -1.448229 -5.844795
  H 1.868915 -2.255338 -5.299646
  H 3.417256 -3.084303 -5.193083
  H 6.657757 -0.355000 -1.196676
 32
 4.577205
  C 1.040790 0.444968 0.293207
  C 2.464457 0.169069 0.408154
  C 3.249147 0.484780 1.603977
  C 2.476106 1.044891 2.795521
  C 3.418292 1.309482 3.968809
  C 3.028566 -0.328458 -0.777759
  C 4.396510 -0.338498 -1.038998
  C 5.069683 -0.688095 -2.184957
  C 4.610895 -1.301948 -3.441906
  C 3.140422 -1.657271 -3.629513
  C 2.932413 -2.308804 -4.994900
  O 6.365231 -0.431432 -2.185967
  H 0.587811 0.932622 1.135122
  H 0.493468 -0.463312 0.057724
  H 0.996802 1.053616 -0.596664
  H 4.036829 1.199870 1.339527
  H 3.767954 -0.427797 1.924062
  H 1.708306 0.335811 3.112310
  H 1.986988 1.981656 2.520448
  H 3.908617 0.392646 4.289617
  H 2.865858 1.707937 4.816347
  H 4.184471 2.033154 3.698352
  H 2.344753 -0.613335 -1.560293
  H 5.023303 0.038719 -0.243702
  H 5.218905 -2.206262 -3.574811
  H 4.929183 -0.633436 -4.251214
  H 2.526285 -0.756492 -3.583199
  H 2.820398 -2.357613 -2.856256
  H 3.227538 -1.635500 -5.796182
  H 1.885433 -2.564017 -5.137257
  H 3.516755 -3.221691 -5.084022
  H 6.564770 0.006691 -1.344633
 32
 8.031511
  C 1.102616 0.663173 0.212323
  C 2.484655 0.216431 0.403514
  C 3.255524 0.420273 1.648632
  C 2.491034 1.012666 2.825862
  C 3.396802 1.138593 4.045631
  C 3.030131 -0.303215 -0.778119
  C 4.374738 -0.273245 -1.065557
  C 5.030603 -0.571820 -2.254356
  C 4.582139 -1.256856 -3.488260
  C 3.153683 -1.765842 -3.599056
  C 2.961674 -2.495733 -4.925034
  O 6.284562 -0.171638 -2.310366
  H 0.651690 1.208435 1.027114
  H 0.470950 -0.171367 -0.076054
  H 1.217268 1.287791 -0.697100
  H 4.113366 1.062758 1.444154
  H 3.673557 -0.541757 1.950050
  H 1.642187 0.374626 3.079926
  H 2.109764 2.002826 2.567454
  H 3.778505 0.165297 4.349848
  H 2.846887 1.560167 4.884185
  H 4.243368 1.790950 3.837674
  H 2.338723 -0.568992 -1.561827
  H 5.005220 0.135618 -0.283579
  H 5.270066 -2.095025 -3.627930
  H 4.794358 -0.582986 -4.321622
  H 2.452560 -0.931957 -3.565127
  H 2.936818 -2.456116 -2.783294
  H 3.156651 -1.832765 -5.765467
  H 1.941581 -2.860421 -5.012247
  H 3.632284 -3.349065 -5.000975
  H 6.444268 0.312598 -1.478639
 32
 9.697203
  C 1.214793 0.975690 0.131636
  C 2.498222 0.302174 0.359741
  C 3.228530 0.331011 1.643505
  C 2.498305 0.962870 2.824993
  C 3.347920 0.881301 4.084164
  C 3.027219 -0.235754 -0.809618
  C 4.371886 -0.219085 -1.095539
  C 4.973339 -0.420828 -2.327193
  C 4.529474 -1.186032 -3.520835
  C 3.184291 -1.905051 -3.503909
  C 3.023593 -2.738836 -4.769989
  O 6.142878 0.159236 -2.489553
  H 0.827276 1.538853 0.972395
  H 0.462390 0.271118 -0.230221
  H 1.447121 1.638241 -0.714974
  H 4.184757 0.856287 1.511153
  H 3.499966 -0.701958 1.902790
  H 1.553874 0.445131 3.001099
  H 2.279864 2.011208 2.616703
  H 3.567101 -0.151017 4.338742
  H 2.825142 1.328770 4.922423
  H 4.286708 1.409710 3.955030
  H 2.335804 -0.438539 -1.611871
  H 5.017919 0.181516 -0.322820
  H 5.323335 -1.925399 -3.703064
  H 4.577328 -0.508382 -4.384198
  H 2.369040 -1.184833 -3.469816
  H 3.119709 -2.561657 -2.636714
  H 3.068661 -2.111771 -5.655291
  H 2.065735 -3.250275 -4.767104
  H 3.805439 -3.489615 -4.844048
  H 6.310219 0.721719 -1.699609
 32
 11.486576
  C 1.346967 1.271892 0.084373
  C 2.510609 0.413151 0.309047
  C 3.190053 0.271793 1.615048
  C 2.514267 0.927286 2.816255
  C 3.298015 0.642212 4.091971
  C 3.012355 -0.137501 -0.859387
  C 4.355220 -0.257110 -1.112403
  C 4.885146 -0.314643 -2.393369
  C 4.432088 -1.100515 -3.563691
  C 3.245029 -2.045139 -3.398537
  C 3.133889 -2.964737 -4.611787
  O 5.944836 0.415468 -2.625729
  H 1.002251 1.799496 0.966346
  H 0.521672 0.710638 -0.354960
  H 1.679060 1.991197 -0.685693
  H 4.210009 0.665739 1.541127
  H 3.310383 -0.798730 1.816045
  H 1.499970 0.541882 2.931772
  H 2.456940 2.007713 2.674929
  H 3.358146 -0.426911 4.280570
  H 2.813410 1.106608 4.946242
  H 4.308911 1.036265 4.024698
  H 2.336143 -0.205674 -1.697184
  H 5.038185 0.036260 -0.325410
  H 5.307766 -1.689666 -3.864116
  H 4.259489 -0.413083 -4.397978
  H 2.314532 -1.485315 -3.313934
  H 3.370929 -2.650852 -2.499914
  H 2.995245 -2.388357 -5.523485
  H 2.284689 -3.634349 -4.502921
  H 4.028896 -3.572364 -4.725077
  H 6.139917 1.006719 -1.858582
 32
 14.957034
  C 1.483087 1.454870 0.049294
  C 2.534474 0.464952 0.283695
  C 3.163031 0.229283 1.599298
  C 2.525409 0.923279 2.802242
  C 3.243425 0.528036 4.090067
  C 3.008271 -0.116432 -0.883595
  C 4.335178 -0.360017 -1.113686
  C 4.823583 -0.289933 -2.418119
  C 4.330739 -1.041401 -3.592428
  C 3.347025 -2.177044 -3.310861
  C 3.207082 -3.073966 -4.538614
  O 5.796056 0.538704 -2.649576
  H 1.163742 1.979550 0.943351
  H 0.614830 1.003844 -0.432732
  H 1.913571 2.172212 -0.676570
  H 4.218757 0.524153 1.556742
  H 3.172982 -0.852627 1.778427
  H 1.475298 0.640948 2.883783
  H 2.583089 2.006092 2.688855
  H 3.189134 -0.545759 4.251417
  H 2.786638 1.019111 4.945034
  H 4.290921 0.817301 4.056909
  H 2.355089 -0.081335 -1.747539
  H 5.037313 -0.164041 -0.312648
  H 5.224111 -1.455517 -4.076203
  H 3.919077 -0.341647 -4.326316
  H 2.362680 -1.786913 -3.055926
  H 3.703605 -2.771821 -2.468628
  H 2.844152 -2.506531 -5.393632
  H 2.501539 -3.878495 -4.342653
  H 4.162451 -3.521931 -4.806385
  H 5.987959 1.113197 -1.869238
 32
 18.437349
  C 1.579435 1.597172 0.072209
  C 2.518879 0.489139 0.296044
  C 3.126770 0.182587 1.601017
  C 2.558693 0.918683 2.816712
  C 3.237017 0.437813 4.099717
  C 2.942169 -0.113038 -0.888171
  C 4.268536 -0.351210 -1.141596
  C 4.757323 -0.270369 -2.449553
  C 4.301766 -1.055244 -3.620130
  C 3.414380 -2.259646 -3.300088
  C 3.304030 -3.178215 -4.511944
  O 5.683446 0.626280 -2.667131
  H 1.310822 2.133636 0.975424
  H 0.671784 1.259663 -0.432771
  H 2.096927 2.279487 -0.628397
  H 4.204126 0.378219 1.558967
  H 3.037807 -0.895998 1.766204
  H 1.485657 0.736908 2.896465
  H 2.719952 1.993421 2.718954
  H 3.080104 -0.629941 4.246687
  H 2.829516 0.958318 4.962269
  H 4.308616 0.626201 4.069062
  H 2.272445 -0.059401 -1.739688
  H 4.981667 -0.145365 -0.348293
  H 5.209749 -1.394433 -4.142194
  H 3.804605 -0.386288 -4.332012
  H 2.411209 -1.934985 -3.014130
  H 3.840671 -2.816632 -2.462862
  H 2.876728 -2.650439 -5.360169
  H 2.666176 -4.027948 -4.286852
  H 4.280209 -3.558199 -4.802763
  H 5.769331 1.222252 -1.886163
 32
 22.595321
  C 1.680941 1.651606 0.069227
  C 2.514238 0.470958 0.320778
  C 3.103060 0.137363 1.632706
  C 2.595923 0.929973 2.839403
  C 3.232794 0.413216 4.123148
  C 2.895710 -0.169707 -0.857428
  C 4.220573 -0.356198 -1.136536
  C 4.703588 -0.276965 -2.444497
  C 4.279090 -1.067768 -3.618085
  C 3.459760 -2.325526 -3.310238
  C 3.374243 -3.221129 -4.538639
  O 5.582615 0.670781 -2.661856
  H 1.448945 2.220247 0.959810
  H 0.756336 1.394760 -0.451109
  H 2.275596 2.277994 -0.628440
  H 4.188847 0.245639 1.586525
  H 2.935671 -0.927734 1.810655
  H 1.513110 0.835007 2.920954
  H 2.841427 1.986329 2.729925
  H 2.991719 -0.637227 4.281900
  H 2.868076 0.974603 4.980298
  H 4.316281 0.515609 4.090067
  H 2.203652 -0.144817 -1.690692
  H 4.937292 -0.107109 -0.358835
  H 5.199716 -1.349205 -4.162279
  H 3.734134 -0.411009 -4.308444
  H 2.451559 -2.060184 -3.002382
  H 3.926238 -2.876536 -2.495825
  H 2.906149 -2.696101 -5.369227
  H 2.782050 -4.108311 -4.321711
  H 4.365291 -3.545714 -4.853844
  H 5.575172 1.304213 -1.899740
 32
 26.803380
  C 1.813236 1.729362 0.065238
  C 2.511821 0.464267 0.339536
  C 3.062672 0.087263 1.653271
  C 2.638229 0.939448 2.845950
  C 3.211923 0.372807 4.139665
  C 2.853557 -0.199954 -0.840572
  C 4.174149 -0.392565 -1.134099
  C 4.625268 -0.264266 -2.452691
  C 4.215179 -1.061611 -3.625680
  C 3.553187 -2.401738 -3.298531
  C 3.460096 -3.274453 -4.546640
  O 5.438151 0.743411 -2.669139
  H 1.615845 2.315972 0.952595
  H 0.886172 1.575668 -0.481429
  H 2.495256 2.287242 -0.611722
  H 4.158290 0.078751 1.606305
  H 2.786782 -0.957400 1.842871
  H 1.550869 0.959459 2.921975
  H 2.993560 1.962763 2.725654
  H 2.861446 -0.642452 4.308302
  H 2.905113 0.978674 4.987851
  H 4.298523 0.359789 4.111513
  H 2.152643 -0.156323 -1.666745
  H 4.902275 -0.156427 -0.365231
  H 5.113682 -1.224121 -4.237334
  H 3.552178 -0.452131 -4.254013
  H 2.549990 -2.244577 -2.904048
  H 4.136093 -2.922007 -2.538036
  H 2.878896 -2.780021 -5.323374
  H 2.976927 -4.221661 -4.313169
  H 4.449674 -3.490262 -4.945322
  H 5.408915 1.371789 -1.900591
 32
 31.908024
  C 1.935459 1.710880 0.026444
  C 2.524419 0.404291 0.361859
  C 3.037054 0.037955 1.689282
  C 2.681256 0.970559 2.846373
  C 3.200943 0.410094 4.163817
  C 2.846114 -0.305417 -0.801153
  C 4.166294 -0.481942 -1.096260
  C 4.583632 -0.284044 -2.419705
  C 4.163419 -1.045846 -3.610697
  C 3.635892 -2.448982 -3.312271
  C 3.502556 -3.258679 -4.597434
  O 5.327092 0.778661 -2.614889
  H 1.757864 2.336140 0.892814
  H 1.012101 1.612077 -0.541303
  H 2.681372 2.197132 -0.647890
  H 4.129724 -0.067199 1.648134
  H 2.673947 -0.970628 1.917631
  H 1.599116 1.084854 2.914891
  H 3.121997 1.955131 2.688373
  H 2.765289 -0.565056 4.370223
  H 2.944033 1.073191 4.985786
  H 4.283085 0.304111 4.142516
  H 2.142516 -0.279301 -1.622080
  H 4.895047 -0.244257 -0.328969
  H 5.022068 -1.097518 -4.288889
  H 3.405614 -0.464847 -4.154131
  H 2.663943 -2.392518 -2.827893
  H 4.318968 -2.959562 -2.634018
  H 2.820532 -2.771514 -5.294471
  H 3.113575 -4.253952 -4.381659
  H 4.470049 -3.373029 -5.087845
  H 5.274316 1.393519 -1.835755
 32
 37.581904
  C 2.038809 1.687843 -0.003366
  C 2.530461 0.351204 0.383027
  C 3.016864 -0.005727 1.726295
  C 2.749561 1.002571 2.843040
  C 3.222807 0.454916 4.183702
  C 2.818245 -0.400754 -0.767949
  C 4.138759 -0.573265 -1.064564
  C 4.517549 -0.294561 -2.386221
  C 4.131809 -1.036180 -3.600551
  C 3.708198 -2.485022 -3.342032
  C 3.558707 -3.246681 -4.655017
  O 5.173450 0.830273 -2.543900
  H 1.886938 2.345267 0.842139
  H 1.123261 1.633170 -0.584474
  H 2.823451 2.111823 -0.675355
  H 4.093733 -0.212735 1.689603
  H 2.564803 -0.966941 1.995981
  H 1.683342 1.214344 2.906914
  H 3.274351 1.935684 2.642746
  H 2.702657 -0.468039 4.432140
  H 3.029367 1.172063 4.975533
  H 4.291418 0.251669 4.166891
  H 2.105330 -0.385967 -1.585384
  H 4.870655 -0.348859 -0.295295
  H 4.979418 -1.001620 -4.294651
  H 3.321956 -0.491742 -4.109512
  H 2.759689 -2.511040 -2.806146
  H 4.456792 -2.979375 -2.721656
  H 2.811569 -2.778163 -5.292610
  H 3.247665 -4.272001 -4.466264
  H 4.502420 -3.274991 -5.197643
  H 5.107032 1.406381 -1.735293
 32
 43.407771
  C 2.120840 1.646529 -0.035682
  C 2.528054 0.296073 0.403613
  C 2.988593 -0.048564 1.754914
  C 2.834934 1.025034 2.829321
  C 3.276088 0.491227 4.186603
  C 2.797687 -0.488718 -0.734594
  C 4.117059 -0.640499 -1.034463
  C 4.466447 -0.302103 -2.353568
  C 4.119398 -1.028096 -3.587060
  C 3.778282 -2.501707 -3.364863
  C 3.616787 -3.225664 -4.696299
  O 5.027046 0.878480 -2.473312
  H 2.007032 2.339566 0.788839
  H 1.197912 1.624688 -0.612012
  H 2.925946 2.007334 -0.725996
  H 4.037615 -0.370861 1.719148
  H 2.441236 -0.947068 2.068268
  H 1.792476 1.340103 2.897271
  H 3.443038 1.896216 2.581643
  H 2.674863 -0.366613 4.481180
  H 3.165001 1.256284 4.949296
  H 4.319774 0.186193 4.165223
  H 2.080498 -0.485162 -1.546052
  H 4.846501 -0.403614 -0.265632
  H 4.961545 -0.928576 -4.281033
  H 3.282727 -0.518527 -4.081471
  H 2.853951 -2.592387 -2.795468
  H 4.572644 -2.977176 -2.790382
  H 2.820131 -2.776740 -5.288677
  H 3.367744 -4.272357 -4.531856
  H 4.540318 -3.184916 -5.276301
  H 4.918732 1.421892 -1.644262
 32
 49.770401
  C 2.206407 1.632130 -0.053222
  C 2.530468 0.267037 0.424613
  C 2.982382 -0.073348 1.780628
  C 2.927790 1.037731 2.825662
  C 3.348499 0.508928 4.192636
  C 2.764417 -0.546148 -0.706718
  C 4.079355 -0.690823 -1.020672
  C 4.396920 -0.309919 -2.339288
  C 4.098440 -1.027510 -3.587653
  C 3.836411 -2.522357 -3.395276
  C 3.709534 -3.226273 -4.740872
  O 4.868073 0.915844 -2.425767
  H 2.144499 2.351413 0.755503
  H 1.274930 1.651838 -0.615075
  H 3.021479 1.930517 -0.768780
  H 4.002092 -0.481040 1.740331
  H 2.370516 -0.914994 2.126687
  H 1.914305 1.433171 2.898854
  H 3.596407 1.852747 2.544902
  H 2.688001 -0.291458 4.520131
  H 3.308611 1.301615 4.935137
  H 4.363676 0.124196 4.165771
  H 2.032428 -0.552455 -1.505219
  H 4.817638 -0.452296 -0.258646
  H 4.937243 -0.867667 -4.274852
  H 3.236802 -0.554095 -4.078121
  H 2.918642 -2.672125 -2.826366
  H 4.655952 -2.967623 -2.831253
  H 2.888872 -2.807662 -5.322592
  H 3.516262 -4.288144 -4.597774
  H 4.626650 -3.125322 -5.320368
  H 4.711202 1.431864 -1.580384
