 22
 0.000000
  C 0.956024 0.054285 0.173662
  C 2.458412 0.058808 0.093487
  C 3.258000 -0.013810 1.380489
  C 2.473440 -0.087498 2.686339
  H 3.172551 -0.134458 3.518619
  C 3.080129 0.126331 -1.103129
  C 2.325162 0.199658 -2.402678
  H 1.251391 0.191865 -2.264533
  C 4.531282 0.133252 -1.225753
  C 5.217957 0.197309 -2.361062
  H 6.295059 0.197340 -2.361587
  H 0.603325 -0.003409 1.196085
  H 0.546916 -0.800423 -0.364918
  H 0.546918 0.964159 -0.265345
  H 3.907553 0.865322 1.432480
  H 3.907560 -0.893211 1.333250
  H 1.847183 -0.976204 2.723446
  H 1.847179 0.791385 2.823188
  H 2.598165 -0.645032 -3.035046
  H 2.598165 1.110123 -2.936007
  H 5.092422 0.081258 -0.304281
  H 4.759601 0.252145 -3.332888
 22
 12.280093
  C 0.925300 0.051764 0.218349
  C 2.419747 0.055238 0.156749
  C 3.230726 -0.016293 1.424495
  C 2.460516 -0.090448 2.738598
  H 3.169721 -0.136935 3.562516
  C 3.114509 0.130739 -1.181256
  C 2.344640 0.203131 -2.464226
  H 1.271928 0.194324 -2.308109
  C 4.551540 0.136432 -1.282124
  C 5.255411 0.200059 -2.409807
  H 6.332149 0.199159 -2.393822
  H 0.562244 -0.005742 1.237423
  H 0.521020 -0.802167 -0.326934
  H 0.521021 0.961618 -0.227405
  H 3.881789 0.863427 1.467973
  H 3.881791 -0.895316 1.368733
  H 1.835888 -0.980110 2.783492
  H 1.835885 0.788510 2.883291
  H 2.607760 -0.642353 -3.100141
  H 2.607760 1.114785 -3.000991
  H 5.099370 0.083918 -0.351423
  H 4.809866 0.255216 -3.387324
