 20
 0.000000
  C 0.991705 0.129669 0.372750
  C 2.463206 0.144736 0.413349
  C 3.211604 0.620587 1.597797
  C 2.395333 1.100668 2.790409
  H 3.063556 1.419356 3.584644
  C 3.129917 -0.311800 -0.720762
  C 4.514778 -0.378929 -0.889440
  C 5.101794 -0.842840 -2.045282
  H 4.540254 -1.189799 -2.904548
  O 6.384250 -0.920150 -2.246203
  H 0.530264 0.495699 1.281493
  H 0.637869 -0.884694 0.180628
  H 0.639467 0.729313 -0.468333
  H 3.872930 1.434513 1.280243
  H 3.871712 -0.187419 1.932483
  H 1.763060 0.306776 3.180926
  H 1.764427 1.944889 2.522491
  H 2.515702 -0.644022 -1.546983
  H 5.159449 -0.054505 -0.083999
  H 6.930556 -0.614266 -1.494133
 20
 12.621679
  C 0.860945 0.139329 0.396187
  C 2.477149 0.162574 0.458231
  C 3.214582 0.633608 1.630702
  C 2.393343 1.112669 2.820231
  H 3.059473 1.432224 3.616715
  C 3.194541 -0.332641 -0.771620
  C 4.573308 -0.394746 -0.928155
  C 5.161355 -0.859464 -2.086499
  H 4.589825 -1.204571 -2.940466
  O 6.441371 -0.938953 -2.294050
  H 0.402467 0.504725 1.303068
  H 0.523295 -0.876335 0.202825
  H 0.525271 0.739125 -0.446780
  H 3.877823 1.447285 1.312632
  H 3.876418 -0.174667 1.964986
  H 1.761392 0.318290 3.209216
  H 1.763019 1.956311 2.550693
  H 2.577016 -0.662814 -1.592787
  H 5.215302 -0.069301 -0.120137
  H 6.993585 -0.633874 -1.545723
 20
 39.383400
  C 0.721004 0.133534 0.381553
  C 2.513672 0.178404 0.497421
  C 3.237904 0.647005 1.664234
  C 2.412258 1.124091 2.849165
  H 3.072042 1.445835 3.650563
  C 3.240761 -0.348870 -0.812677
  C 4.603400 -0.401354 -0.946014
  C 5.187807 -0.864402 -2.098965
  H 4.596500 -1.205379 -2.941274
  O 6.462789 -0.948443 -2.317027
  H 0.279143 0.499635 1.290497
  H 0.444843 -0.892288 0.179084
  H 0.446783 0.734443 -0.474816
  H 3.912030 1.453443 1.350374
  H 3.910745 -0.153266 1.996357
  H 1.777822 0.328200 3.229959
  H 1.779686 1.963386 2.572681
  H 2.597287 -0.669540 -1.609454
  H 5.239278 -0.075035 -0.136570
  H 7.025104 -0.645944 -1.575011
 20
 67.304709
  C 0.538576 0.122377 0.350603
  C 2.646070 0.188009 0.522689
  C 3.300773 0.662180 1.703434
  C 2.386670 1.121757 2.844620
  H 2.984629 1.458460 3.684769
  C 3.279814 -0.332172 -0.769332
  C 4.661324 -0.398828 -0.942403
  C 5.201149 -0.872419 -2.118071
  H 4.555771 -1.201650 -2.922796
  O 6.468415 -0.979250 -2.394810
  H 0.200483 0.505761 1.302990
  H 0.388451 -0.929537 0.176942
  H 0.391628 0.762222 -0.502723
  H 3.971654 1.494914 1.410911
  H 3.970019 -0.142205 2.068811
  H 1.752986 0.305983 3.186535
  H 1.754929 1.948587 2.526726
  H 2.577798 -0.640794 -1.532703
  H 5.321773 -0.078674 -0.152551
  H 7.075335 -0.685410 -1.679701
 20
 92.820955
  C 0.280402 0.114315 0.339325
  C 2.716461 0.185542 0.494967
  C 3.380909 0.663511 1.684248
  C 2.460120 1.110589 2.830997
  H 3.058173 1.448533 3.672435
  C 3.326221 -0.304471 -0.742545
  C 4.699397 -0.373334 -0.921746
  C 5.245913 -0.865910 -2.101002
  H 4.614110 -1.201736 -2.913479
  O 6.506672 -0.986316 -2.360090
  H -0.034513 0.492881 1.296577
  H 0.135310 -0.931927 0.164032
  H 0.129265 0.755138 -0.504980
  H 4.045428 1.505048 1.396067
  H 4.058013 -0.137349 2.047994
  H 1.836704 0.290211 3.169224
  H 1.823344 1.930985 2.519202
  H 2.639945 -0.618910 -1.509084
  H 5.359423 -0.053826 -0.129978
  H 7.094915 -0.704219 -1.645381
 20
 101.002551
  C 0.201052 0.103872 0.350329
  C 3.056246 0.218725 0.548486
  C 3.429938 0.723300 1.825970
  C 2.303055 1.104412 2.793734
  H 2.721406 1.475996 3.727488
  C 3.445147 -0.232789 -0.609255
  C 4.836442 -0.390519 -0.976504
  C 5.182581 -0.895231 -2.168793
  H 4.443398 -1.183846 -2.910208
  O 6.429380 -1.098411 -2.597036
  H -0.004416 0.489033 1.329180
  H 0.205649 -0.952386 0.187300
  H 0.184766 0.763312 -0.491340
  H 4.043773 1.618870 1.664462
  H 4.055731 -0.031957 2.316983
  H 1.682884 0.234896 3.010507
  H 1.679977 1.884136 2.355239
  H 2.713085 -0.542533 -1.349557
  H 5.585407 -0.131903 -0.249003
  H 7.098542 -0.833375 -1.953787
 20
 101.098489
  C 0.140682 0.106271 0.332680
  C 3.264963 0.247925 0.647618
  C 3.477210 0.771257 1.945213
  C 2.222797 1.103147 2.773881
  H 2.522309 1.473100 3.745831
  C 3.562955 -0.217835 -0.510703
  C 4.921042 -0.409113 -1.001137
  C 5.146739 -0.915825 -2.220577
  H 4.350697 -1.220273 -2.885952
  O 6.345871 -1.149966 -2.754104
  H -0.101694 0.500209 1.296889
  H 0.180089 -0.955690 0.185530
  H 0.177052 0.761696 -0.515494
  H 4.076712 1.682891 1.856748
  H 4.023478 0.005037 2.507039
  H 1.617376 0.211856 2.910624
  H 1.636380 1.869428 2.276402
  H 2.789783 -0.538090 -1.213081
  H 5.729315 -0.136637 -0.345006
  H 7.074350 -0.850497 -2.181287
 20
 100.752247
  C 0.098205 0.086128 0.275240
  C 3.469411 0.285269 0.770890
  C 3.533919 0.815579 2.073380
  C 2.161142 1.091903 2.741019
  H 2.328151 1.481790 3.736207
  C 3.686019 -0.187977 -0.391887
  C 4.980384 -0.431551 -1.004570
  C 5.077736 -0.934462 -2.244073
  H 4.209007 -1.184975 -2.844555
  O 6.208467 -1.181138 -2.895583
  H -0.225118 0.479744 1.217696
  H 0.205806 -0.969591 0.144124
  H 0.218509 0.739076 -0.561724
  H 4.088794 1.759657 2.044740
  H 4.035076 0.083786 2.708300
  H 1.592114 0.175149 2.811899
  H 1.607390 1.821529 2.167168
  H 2.848804 -0.472243 -1.032017
  H 5.847838 -0.187470 -0.423834
  H 7.001476 -0.911099 -2.387712
 20
 100.259057
  C 0.028989 0.073509 0.241516
  C 3.643762 0.342819 0.870453
  C 3.590758 0.861018 2.176280
  C 2.129823 1.056891 2.679221
  H 2.164288 1.454499 3.688645
  C 3.797006 -0.147260 -0.292034
  C 5.029888 -0.413168 -1.013708
  C 5.016821 -0.942298 -2.244855
  H 4.105489 -1.195041 -2.759570
  O 6.088316 -1.223787 -2.983893
  H -0.393143 0.453699 1.156294
  H 0.193736 -0.970511 0.126200
  H 0.204539 0.731891 -0.574849
  H 4.085915 1.840819 2.200407
  H 4.070051 0.163565 2.863051
  H 1.609212 0.105802 2.687558
  H 1.601550 1.756477 2.038641
  H 2.906257 -0.417928 -0.858604
  H 5.952893 -0.162619 -0.512490
  H 6.922633 -0.986150 -2.539239
