 29
 0.000000
  C 0.990066 0.135847 0.389650
  C 2.466360 0.140617 0.400737
  C 3.238989 0.612006 1.573588
  C 2.449219 1.097986 2.783697
  H 3.119483 1.414724 3.571698
  C 3.087598 -0.323300 -0.754497
  C 4.463155 -0.412471 -0.977308
  C 5.125642 -0.867345 -2.110706
  C 4.615834 -1.388158 -3.408696
  C 3.123182 -1.502063 -3.693942
  C 2.894284 -2.064053 -5.094541
  O 6.447944 -0.868398 -2.113401
  H 0.547613 0.504560 1.307703
  H 0.623974 -0.877251 0.219272
  H 0.623499 0.749356 -0.434157
  H 3.895808 1.425176 1.244686
  H 3.896228 -0.202364 1.898585
  H 1.814003 0.302589 3.169851
  H 1.813626 1.939224 2.512357
  H 2.427639 -0.640492 -1.543774
  H 5.092090 -0.083510 -0.158216
  H 5.069044 -2.377679 -3.537614
  H 5.069680 -0.762696 -4.185886
  H 2.650512 -0.520709 -3.639240
  H 2.649821 -2.172995 -2.976129
  H 3.331846 -1.417629 -5.851735
  H 1.828913 -2.144132 -5.295209
  H 3.331179 -3.054900 -5.194669
  H 6.836477 -0.535599 -1.282699
 29
 15.025249
  C 0.924853 0.190163 0.525601
  C 2.467002 0.110652 0.326679
  C 3.327689 0.566118 1.459055
  C 2.623507 1.068721 2.710068
  H 3.373568 1.362620 3.441005
  C 2.833961 -0.375705 -0.883567
  C 4.182522 -0.394372 -0.931689
  C 5.003281 -0.836446 -2.033377
  C 4.604482 -1.371022 -3.365601
  C 3.134938 -1.526866 -3.755447
  C 3.031968 -2.094253 -5.170679
  O 6.343161 -0.788570 -1.914921
  H 0.619330 0.575676 1.484655
  H 0.504391 -0.801590 0.394082
  H 0.504016 0.814769 -0.255644
  H 3.976057 1.374973 1.112871
  H 3.976613 -0.256969 1.768815
  H 2.006566 0.296478 3.159888
  H 2.006192 1.937278 2.500479
  H 2.145571 -0.681335 -1.643409
  H 4.774650 -0.060079 -0.100197
  H 5.106981 -2.342772 -3.459446
  H 5.107367 -0.733835 -4.104993
  H 2.632654 -0.559217 -3.737132
  H 2.632084 -2.213351 -3.073676
  H 3.508653 -1.433468 -5.890724
  H 1.989651 -2.208727 -5.457464
  H 3.507819 -3.069798 -5.234691
  H 6.679725 -0.442836 -1.051478
 29
 54.365232
  C 0.963242 0.221139 0.596503
  C 2.540311 0.086568 0.264405
  C 3.385526 0.537010 1.391961
  C 2.685101 1.039575 2.641519
  H 3.449030 1.326661 3.362628
  C 2.693439 -0.404494 -0.959556
  C 4.012110 -0.383827 -0.908041
  C 4.932978 -0.821548 -1.999895
  C 4.611898 -1.357939 -3.334862
  C 3.151541 -1.537178 -3.776658
  C 3.099694 -2.106165 -5.195836
  O 6.245717 -0.740321 -1.802714
  H 0.727462 0.613731 1.575925
  H 0.522026 -0.760400 0.489575
  H 0.523704 0.858301 -0.158708
  H 4.028364 1.358364 1.070857
  H 4.023358 -0.281154 1.729210
  H 2.073571 0.271585 3.099634
  H 2.077640 1.914063 2.441344
  H 1.955357 -0.696969 -1.690389
  H 4.610609 -0.046798 -0.066189
  H 5.122749 -2.325398 -3.418949
  H 5.121232 -0.716422 -4.065198
  H 2.635410 -0.575316 -3.774277
  H 2.640008 -2.231365 -3.107289
  H 3.588709 -1.438248 -5.901407
  H 2.068318 -2.235963 -5.514723
  H 3.591966 -3.075022 -5.246084
  H 6.522051 -0.388803 -0.930484
 29
 103.472648
  C 0.916166 0.225973 0.609630
  C 2.595791 0.063789 0.210145
  C 3.417916 0.531796 1.376084
  C 2.750355 1.047262 2.660380
  H 3.542713 1.323206 3.346833
  C 2.610782 -0.427387 -1.012254
  C 3.913601 -0.369906 -0.871378
  C 4.912572 -0.818354 -1.990798
  C 4.615616 -1.359216 -3.337599
  C 3.172132 -1.540946 -3.788736
  C 3.139983 -2.109031 -5.204036
  O 6.189859 -0.720791 -1.751423
  H 0.691786 0.615528 1.580159
  H 0.495716 -0.769166 0.502374
  H 0.497522 0.872225 -0.155727
  H 4.054604 1.358043 1.040014
  H 4.056045 -0.296778 1.703991
  H 2.147927 0.284745 3.148490
  H 2.147457 1.935218 2.485584
  H 1.864867 -0.707115 -1.710476
  H 4.568888 -0.058778 -0.090304
  H 5.138695 -2.322367 -3.410759
  H 5.138691 -0.713963 -4.056381
  H 2.655441 -0.581766 -3.790426
  H 2.656305 -2.235159 -3.126307
  H 3.635755 -1.439528 -5.903580
  H 2.113294 -2.242191 -5.535788
  H 3.635875 -3.076269 -5.247553
  H 6.435651 -0.368439 -0.873674
 29
 150.860726
  C 0.860831 0.241653 0.645685
  C 2.663884 0.008287 0.200648
  C 3.443434 0.529224 1.381867
  C 2.767299 1.095942 2.628308
  H 3.560408 1.398295 3.311592
  C 2.561815 -0.547206 -1.003454
  C 3.865180 -0.417913 -0.800864
  C 4.913969 -0.838487 -1.996311
  C 4.630863 -1.349305 -3.345722
  C 3.187696 -1.540060 -3.801369
  C 3.160641 -2.072344 -5.230270
  O 6.198426 -0.731891 -1.737836
  H 0.653562 0.656622 1.603073
  H 0.473658 -0.759790 0.561218
  H 0.462134 0.869110 -0.135076
  H 4.085870 1.338192 1.016476
  H 4.079682 -0.286350 1.745950
  H 2.161316 0.359041 3.140403
  H 2.172906 1.974522 2.411018
  H 1.798805 -0.836883 -1.674818
  H 4.609596 -0.146185 -0.058997
  H 5.167022 -2.301400 -3.441190
  H 5.143398 -0.677302 -4.044975
  H 2.658110 -0.589098 -3.778034
  H 2.684304 -2.257577 -3.155759
  H 3.644743 -1.379932 -5.912020
  H 2.137190 -2.211705 -5.563903
  H 3.669240 -3.028898 -5.298556
  H 6.430718 -0.400723 -0.867114
 29
 128.186873
  C 0.300244 0.207344 0.561017
  C 3.277317 -0.080737 0.267074
  C 3.706886 0.605531 1.465963
  C 2.588262 1.156596 2.353249
  H 3.046304 1.651294 3.205999
  C 2.934280 -0.791670 -0.712108
  C 4.477856 -0.604219 -0.800220
  C 5.115855 -0.920003 -1.966909
  C 4.621425 -1.360626 -3.315746
  C 3.131541 -1.452709 -3.623769
  C 2.938809 -1.845203 -5.088492
  O 6.459796 -0.945691 -1.999028
  H -0.015622 0.687267 1.462959
  H 0.206037 -0.858456 0.516065
  H 0.176607 0.753867 -0.351786
  H 4.333972 1.448921 1.166564
  H 4.284708 -0.096441 2.075503
  H 1.953796 0.360665 2.728615
  H 1.983553 1.883932 1.822260
  H 2.149594 -1.118511 -1.340068
  H 5.240705 -0.430060 -0.048026
  H 5.098919 -2.320831 -3.524734
  H 5.065125 -0.638126 -4.009684
  H 2.661937 -0.478484 -3.482322
  H 2.651454 -2.211039 -3.008519
  H 3.408711 -1.118776 -5.748205
  H 1.882891 -1.907084 -5.335656
  H 3.396323 -2.811687 -5.292078
  H 6.909818 -0.642149 -1.193516
 29
 104.285436
  C 0.308183 -0.067572 0.120985
  C 3.356148 0.021454 0.539248
  C 3.637260 0.795965 1.686667
  C 2.316423 1.336656 2.302212
  H 2.566191 1.952139 3.160965
  C 3.476853 -0.830973 -0.412686
  C 4.881617 -0.852249 -0.852914
  C 5.328169 -1.134719 -2.094300
  C 4.602665 -1.398024 -3.378381
  C 3.080835 -1.356509 -3.435833
  C 2.612491 -1.558140 -4.876499
  O 6.651157 -1.257187 -2.301169
  H -0.253263 0.453505 0.866054
  H 0.522445 -1.107778 0.248255
  H 0.555895 0.415594 -0.800834
  H 4.235987 1.665335 1.400386
  H 4.167275 0.209158 2.441548
  H 1.698677 0.508575 2.633050
  H 1.778501 1.935871 1.576829
  H 2.743653 -1.321786 -1.018512
  H 5.604369 -0.697562 -0.065852
  H 4.946178 -2.367418 -3.749870
  H 4.990540 -0.656605 -4.085836
  H 2.714234 -0.391052 -3.085640
  H 2.651444 -2.159517 -2.837545
  H 3.010786 -0.780808 -5.524682
  H 1.528225 -1.529288 -4.933458
  H 2.949797 -2.519065 -5.259376
  H 7.188006 -1.057278 -1.517097
