 13
 0.000000
  H 3.588777 -0.602310 -0.994376
  C 4.663839 -0.608501 -1.006529
  C 5.375543 -1.117821 -2.006406
  C 6.819191 -1.129976 -2.030266
  C 7.534882 -1.640098 -3.031726
  C 9.023675 -1.662152 -3.075017
  H 5.161500 -0.174094 -0.153717
  H 4.871228 -1.552637 -2.860022
  H 7.325677 -0.695830 -1.177966
  H 7.034064 -2.075655 -3.886785
  H 9.456994 -1.209410 -2.186213
  H 9.381882 -1.118499 -3.949709
  H 9.381880 -2.689325 -3.149561
 13
 13.018391
  H 3.541588 -0.597098 -0.984141
  C 4.616699 -0.593940 -0.977943
  C 5.347168 -1.099921 -1.971269
  C 6.775792 -1.101639 -1.974641
  C 7.588256 -1.669504 -3.089456
  C 9.069338 -1.681165 -3.112341
  H 5.094830 -0.155136 -0.116498
  H 4.858196 -1.538518 -2.832302
  H 7.277172 -0.668461 -1.124238
  H 7.091158 -2.103677 -3.941798
  H 9.487372 -1.225359 -2.217524
  H 9.435331 -1.135859 -3.983622
  H 9.435328 -2.706551 -3.183541
 13
 39.391476
  H 3.498651 -0.602743 -0.995205
  C 4.573817 -0.582677 -0.955831
  C 5.335543 -1.084435 -1.940884
  C 6.746480 -1.069315 -1.911203
  C 7.635422 -1.700858 -3.151013
  C 9.101596 -1.696328 -3.142103
  H 5.017371 -0.136769 -0.080422
  H 4.865690 -1.527086 -2.809860
  H 7.283635 -0.650065 -1.088142
  H 7.102504 -2.121044 -3.975900
  H 9.499787 -1.237525 -2.241416
  H 9.479913 -1.151986 -4.009930
  H 9.479912 -2.718364 -3.212052
 13
 68.652560
  H 3.447172 -0.606113 -1.001817
  C 4.520409 -0.569131 -0.929231
  C 5.324239 -1.068962 -1.910496
  C 6.719587 -1.037635 -1.849009
  C 7.682852 -1.733422 -3.214951
  C 9.137748 -1.714197 -3.177202
  H 4.930843 -0.116938 -0.041500
  H 4.873297 -1.516311 -2.788696
  H 7.301663 -0.631854 -1.052400
  H 7.109241 -2.140534 -4.014165
  H 9.511132 -1.251469 -2.268753
  H 9.532547 -1.164652 -4.036659
  H 9.532522 -2.732523 -3.237997
 13
 96.902685
  H 3.409139 -0.614677 -1.018651
  C 4.476990 -0.561838 -0.914921
  C 5.307611 -1.049309 -1.871906
  C 6.683729 -1.003232 -1.781441
  C 7.725458 -1.762049 -3.271126
  C 9.173054 -1.731374 -3.210903
  H 4.858631 -0.105362 -0.018785
  H 4.875733 -1.500621 -2.757898
  H 7.308378 -0.608867 -1.007247
  H 7.118631 -2.159775 -4.051925
  H 9.528737 -1.266285 -2.297841
  H 9.580860 -1.180094 -4.065701
  H 9.580834 -2.746904 -3.267569
 13
 122.459198
  H 3.353502 -0.607312 -1.004184
  C 4.421043 -0.546793 -0.885382
  C 5.269690 -1.029753 -1.833522
  C 6.638476 -0.975563 -1.727133
  C 7.779605 -1.791444 -3.328842
  C 9.231108 -1.753380 -3.254114
  H 4.788398 -0.087389 0.016503
  H 4.851708 -1.482679 -2.722680
  H 7.259068 -0.584141 -0.958717
  H 7.175196 -2.190016 -4.111303
  H 9.576703 -1.285199 -2.334994
  H 9.645796 -1.199902 -4.104796
  H 9.645791 -2.766917 -3.306588
 13
 144.314427
  H 3.304613 -0.603984 -0.997650
  C 4.367581 -0.533748 -0.859773
  C 5.238322 -1.011008 -1.796722
  C 6.598419 -0.946753 -1.670570
  C 7.837527 -1.820042 -3.384983
  C 9.279516 -1.774671 -3.295906
  H 4.715676 -0.071968 0.046777
  H 4.834544 -1.467402 -2.692684
  H 7.229030 -0.556112 -0.903689
  H 7.231578 -2.218128 -4.166487
  H 9.612155 -1.305512 -2.374863
  H 9.700880 -1.218875 -4.141565
  H 9.700865 -2.785488 -3.343549
 13
 162.135477
  H 3.251232 -0.599960 -0.989749
  C 4.311631 -0.519912 -0.832613
  C 5.204425 -0.991471 -1.758370
  C 6.554590 -0.917970 -1.614068
  C 7.892868 -1.848270 -3.440402
  C 9.335919 -1.797233 -3.340200
  H 4.641381 -0.055196 0.079706
  H 4.815485 -1.450159 -2.658832
  H 7.188775 -0.531859 -0.856080
  H 7.287303 -2.246537 -4.222263
  H 9.660372 -1.325892 -2.414876
  H 9.763500 -1.238950 -4.182943
  H 9.763492 -2.807164 -3.384119
 13
 175.244466
  H 3.195577 -0.665003 -0.983868
  C 4.243082 -0.500281 -0.818542
  C 5.180425 -0.959628 -1.713285
  C 6.511231 -0.881996 -1.527131
  C 7.943278 -1.808276 -3.495284
  C 9.385127 -1.842869 -3.372670
  H 4.533589 -0.028012 0.101572
  H 4.825242 -1.445138 -2.613705
  H 7.197450 -0.467640 -0.824887
  H 7.357999 -2.253717 -4.276591
  H 9.729345 -1.343639 -2.470615
  H 9.809558 -1.295212 -4.229854
  H 9.787137 -2.860733 -3.432299
 13
 184.867267
  H 3.143457 -0.672526 -0.966812
  C 4.185595 -0.480494 -0.794543
  C 5.144775 -0.937250 -1.679076
  C 6.463731 -0.862550 -1.470134
  C 8.005554 -1.823789 -3.552571
  C 9.446078 -1.868257 -3.422756
  H 4.459749 -0.011240 0.132158
  H 4.803731 -1.431339 -2.581304
  H 7.143122 -0.439573 -0.772932
  H 7.433491 -2.286070 -4.343803
  H 9.788750 -1.375396 -2.517120
  H 9.877065 -1.325859 -4.276873
  H 9.846134 -2.886400 -3.476245
 13
 190.367016
  H 3.089839 -0.691800 -0.945269
  C 4.125403 -0.461591 -0.773416
  C 5.099759 -0.906322 -1.647872
  C 6.414856 -0.836660 -1.415663
  C 8.072335 -1.842236 -3.603231
  C 9.511678 -1.898886 -3.474984
  H 4.386435 -0.005266 0.163667
  H 4.770850 -1.406570 -2.551658
  H 7.088964 -0.401625 -0.716251
  H 7.523283 -2.320430 -4.409122
  H 9.859588 -1.410055 -2.565899
  H 9.940297 -1.361358 -4.328630
  H 9.911909 -2.920334 -3.530009
 13
 190.891355
  H 3.030038 -0.714226 -0.897574
  C 4.059790 -0.439810 -0.743865
  C 5.041884 -0.870048 -1.624855
  C 6.349014 -0.822070 -1.365641
  C 8.150337 -1.855687 -3.643290
  C 9.594065 -1.932044 -3.529009
  H 4.320007 0.003591 0.201293
  H 4.722106 -1.376414 -2.529130
  H 6.996304 -0.351389 -0.661996
  H 7.654172 -2.364368 -4.477493
  H 9.958915 -1.461136 -2.617745
  H 10.009916 -1.404691 -4.394160
  H 9.980443 -2.958498 -3.605162
 13
 190.683614
  H 2.978522 -0.722331 -0.867306
  C 4.004028 -0.427828 -0.719239
  C 4.988903 -0.848719 -1.600441
  C 6.293959 -0.809850 -1.322412
  C 8.226821 -1.880971 -3.694172
  C 9.671001 -1.966839 -3.582488
  H 4.262674 0.010072 0.229198
  H 4.674430 -1.357714 -2.504850
  H 6.923862 -0.317406 -0.614789
  H 7.764641 -2.405721 -4.541476
  H 10.040750 -1.499728 -2.669919
  H 10.083838 -1.440269 -4.448384
  H 10.055046 -2.993705 -3.665341
 13
 160.139600
  H 3.327611 -0.775554 -0.887430
  C 4.366919 -0.478749 -0.897384
  C 5.211816 -0.960369 -1.858227
  C 6.540198 -1.116275 -1.574811
  C 7.891590 -1.679262 -3.424383
  C 9.341157 -1.840765 -3.335903
  H 4.765441 -0.148018 0.051434
  H 4.804043 -1.393187 -2.761500
  H 7.093392 -0.385294 -1.007688
  H 7.458114 -2.290730 -4.216091
  H 9.760012 -1.423925 -2.423221
  H 9.746764 -1.290601 -4.197482
  H 9.661421 -2.878278 -3.468934
