 26
 0.000000
  C 0.953435 0.128880 0.410650
  C 2.428379 0.132593 0.400939
  C 3.221599 0.607304 1.558014
  C 2.454607 1.100437 2.779584
  H 3.145254 1.416776 3.549506
  C 3.043371 -0.335352 -0.756972
  C 4.420898 -0.414773 -0.958238
  C 5.104903 -0.864938 -2.083770
  C 4.607188 -1.380572 -3.387404
  C 3.121240 -1.493778 -3.689765
  H 2.990136 -1.888073 -4.688613
  O 6.424104 -0.867610 -2.069688
  H 0.528212 0.505938 1.332599
  H 0.588420 -0.885228 0.240133
  H 0.576216 0.723640 -0.422621
  H 3.877839 1.415237 1.216293
  H 3.885865 -0.204063 1.875212
  H 1.826289 0.308158 3.182615
  H 1.818619 1.944079 2.517484
  H 2.384866 -0.656568 -1.544378
  H 5.053412 -0.087043 -0.142125
  H 5.069815 -2.365958 -3.514580
  H 5.076951 -0.753743 -4.153991
  H 2.643740 -0.517596 -3.644556
  H 2.636716 -2.172030 -2.991067
  H 6.827704 -0.539460 -1.246321
 26
 0.165541
  C 0.980718 -0.152801 0.529444
  C 2.434870 0.073794 0.418977
  C 3.199363 0.788936 1.468982
  C 2.432090 1.221263 2.711539
  H 3.113994 1.711428 3.402253
  C 3.055088 -0.419782 -0.725827
  C 4.430639 -0.463526 -0.946280
  C 5.100367 -1.002567 -2.040532
  C 4.582198 -1.439500 -3.367482
  C 3.145531 -1.147247 -3.773879
  H 3.040935 -1.359336 -4.835385
  O 6.408061 -1.165407 -1.979308
  H 0.553567 0.233778 1.445351
  H 0.782879 -1.224742 0.464384
  H 0.466522 0.296301 -0.321664
  H 3.648748 1.676746 1.009042
  H 4.039151 0.160109 1.781463
  H 1.996078 0.368029 3.225131
  H 1.644046 1.929714 2.468744
  H 2.404354 -0.849372 -1.468106
  H 5.068418 -0.113658 -0.143359
  H 4.772378 -2.515982 -3.444125
  H 5.259625 -0.985458 -4.099252
  H 2.892766 -0.102885 -3.615809
  H 2.438526 -1.784623 -3.251819
  H 6.818729 -0.876919 -1.143345
 26
 2.663192
  C 1.045105 -0.266875 0.565668
  C 2.437385 0.184356 0.379179
  C 3.149285 0.972478 1.410446
  C 2.453512 1.138804 2.754718
  H 3.095489 1.706427 3.424030
  C 3.056931 -0.230060 -0.796835
  C 4.427924 -0.377797 -0.984802
  C 5.050203 -1.084535 -2.008321
  C 4.534213 -1.505302 -3.341282
  C 3.185726 -1.010462 -3.842164
  H 3.098073 -1.267309 -4.895951
  O 6.304163 -1.467336 -1.859386
  H 0.569692 0.149470 1.443860
  H 1.071512 -1.356171 0.661044
  H 0.442567 -0.055366 -0.316272
  H 3.334136 1.966085 0.984520
  H 4.140500 0.544298 1.579473
  H 2.255192 0.174366 3.215725
  H 1.517702 1.684082 2.660838
  H 2.401258 -0.594087 -1.570316
  H 5.073499 -0.085511 -0.165084
  H 4.559307 -2.599537 -3.369978
  H 5.309927 -1.190935 -4.047846
  H 3.099894 0.068992 -3.752087
  H 2.358179 -1.492590 -3.330707
  H 6.729844 -1.164203 -1.035907
 26
 7.740809
  C 1.158597 -0.384645 0.548502
  C 2.456511 0.288185 0.347328
  C 3.112805 1.085630 1.404420
  C 2.478453 1.053518 2.788436
  H 3.057981 1.676494 3.464606
  C 3.076157 -0.002599 -0.867045
  C 4.432984 -0.266684 -1.022062
  C 4.973281 -1.119850 -1.973878
  C 4.454262 -1.544018 -3.306099
  C 3.189045 -0.926454 -3.881570
  H 3.091550 -1.252022 -4.915021
  O 6.152693 -1.672345 -1.747893
  H 0.665815 -0.113329 1.473065
  H 1.384012 -1.456025 0.558410
  H 0.487950 -0.220808 -0.293267
  H 3.131111 2.123405 1.047853
  H 4.165054 0.799600 1.485315
  H 2.463851 0.042861 3.188978
  H 1.463783 1.442619 2.776447
  H 2.419231 -0.262391 -1.680471
  H 5.076236 -0.036395 -0.180837
  H 4.358861 -2.635045 -3.289821
  H 5.283983 -1.345953 -3.993747
  H 3.237743 0.158607 -3.876384
  H 2.297470 -1.262093 -3.361054
  H 6.600422 -1.362470 -0.939215
 26
 13.608021
  C 1.301021 -0.510031 0.520461
  C 2.498498 0.333221 0.342637
  C 3.124434 1.091033 1.446788
  C 2.432563 1.030223 2.798682
  H 2.961479 1.665800 3.503785
  C 3.117289 0.160440 -0.901436
  C 4.461279 -0.170119 -1.060157
  C 4.915547 -1.110567 -1.969662
  C 4.359070 -1.549694 -3.283490
  C 3.141571 -0.864128 -3.886676
  H 3.017525 -1.227839 -4.904740
  O 6.048019 -1.748743 -1.725562
  H 0.789977 -0.358808 1.462822
  H 1.689009 -1.534734 0.468345
  H 0.601901 -0.402554 -0.304890
  H 3.177151 2.136219 1.118700
  H 4.170543 0.783671 1.560316
  H 2.430739 0.018623 3.193546
  H 1.406498 1.388307 2.739607
  H 2.457191 -0.004173 -1.736891
  H 5.111314 0.029028 -0.217214
  H 4.182611 -2.625564 -3.222180
  H 5.200510 -1.440335 -3.979621
  H 3.272640 0.214223 -3.931824
  H 2.230378 -1.107704 -3.353595
  H 6.521213 -1.446085 -0.929528
 26
 21.185203
  C 1.416217 -0.558570 0.437714
  C 2.540521 0.390875 0.319670
  C 3.073868 1.180136 1.442936
  C 2.494716 0.893503 2.822413
  H 2.948956 1.557654 3.551291
  C 3.153889 0.333193 -0.939426
  C 4.477659 -0.081340 -1.092129
  C 4.829296 -1.131082 -1.914442
  C 4.264056 -1.588048 -3.221431
  C 3.115777 -0.836456 -3.882096
  H 2.933294 -1.286006 -4.853400
  O 5.901708 -1.854434 -1.614691
  H 0.919871 -0.540535 1.401462
  H 1.895758 -1.534319 0.275334
  H 0.690989 -0.443276 -0.364134
  H 2.900017 2.232372 1.191335
  H 4.164783 1.082667 1.475573
  H 2.696076 -0.130003 3.127905
  H 1.423421 1.064805 2.847017
  H 2.494661 0.257888 -1.793533
  H 5.142992 0.120123 -0.258002
  H 4.000787 -2.646027 -3.118565
  H 5.126692 -1.571518 -3.900336
  H 3.364377 0.208405 -4.040401
  H 2.192873 -0.919682 -3.319730
  H 6.403064 -1.532792 -0.843276
 26
 30.554343
  C 1.559006 -0.558771 0.270480
  C 2.557586 0.524892 0.229143
  C 3.040263 1.246076 1.415713
  C 2.566018 0.737651 2.768177
  H 2.956952 1.378515 3.555554
  C 3.222930 0.548054 -1.007072
  C 4.518093 0.004298 -1.094516
  C 4.750117 -1.136247 -1.821268
  C 4.160363 -1.619774 -3.105679
  C 3.017267 -0.861682 -3.765625
  H 2.801336 -1.334869 -4.718883
  O 5.756030 -1.937961 -1.464033
  H 1.050768 -0.661272 1.223388
  H 2.166913 -1.453670 0.055384
  H 0.841930 -0.505809 -0.549817
  H 2.715968 2.285476 1.290634
  H 4.133870 1.295304 1.394454
  H 2.918468 -0.270581 2.946243
  H 1.481078 0.752972 2.844991
  H 2.611892 0.589472 -1.898111
  H 5.183065 0.199871 -0.259506
  H 3.871538 -2.669189 -2.962451
  H 5.009566 -1.643215 -3.795015
  H 3.291039 0.169749 -3.965398
  H 2.104134 -0.903546 -3.176352
  H 6.272938 -1.613963 -0.703977
 26
 41.288276
  C 1.759640 -0.633353 0.171139
  C 2.609337 0.574715 0.192774
  C 3.056350 1.254019 1.412345
  C 2.530836 0.707256 2.731946
  H 2.864380 1.343363 3.546905
  C 3.266312 0.704676 -1.055435
  C 4.546001 0.095707 -1.125837
  C 4.641252 -1.133683 -1.738992
  C 4.038360 -1.639188 -3.013117
  C 2.949735 -0.847111 -3.710687
  H 2.713950 -1.348684 -4.648045
  O 5.620632 -1.965294 -1.365003
  H 1.254680 -0.862544 1.099848
  H 2.517784 -1.395528 -0.091158
  H 1.079080 -0.682773 -0.679252
  H 2.737844 2.295887 1.306868
  H 4.154464 1.301401 1.424499
  H 2.902557 -0.298304 2.913249
  H 1.443991 0.690613 2.751676
  H 2.641624 0.717732 -1.938077
  H 5.166270 0.236289 -0.247413
  H 3.703670 -2.665153 -2.839757
  H 4.895389 -1.718458 -3.692563
  H 3.285641 0.157244 -3.953567
  H 2.032675 -0.808636 -3.124715
  H 6.222384 -1.596741 -0.696439
 26
 50.714657
  C 1.887784 -0.710241 0.176654
  C 2.669137 0.530326 0.211208
  C 3.049457 1.262068 1.425782
  C 2.518196 0.703937 2.736756
  H 2.874544 1.315252 3.565229
  C 3.254429 0.749970 -1.065735
  C 4.538244 0.151205 -1.211017
  C 4.582291 -1.122887 -1.727434
  C 3.962849 -1.677033 -2.975545
  C 2.969721 -0.830385 -3.755118
  H 2.676214 -1.380388 -4.644290
  O 5.567204 -1.944838 -1.327975
  H 1.445755 -1.027372 1.110049
  H 2.693176 -1.414929 -0.196821
  H 1.192107 -0.792350 -0.655957
  H 2.684357 2.292138 1.292494
  H 4.140338 1.358146 1.467329
  H 2.862028 -0.314935 2.897363
  H 1.428672 0.718886 2.755804
  H 2.600250 0.835198 -1.922436
  H 5.222432 0.349044 -0.390741
  H 3.535638 -2.656668 -2.746588
  H 4.828925 -1.870731 -3.629145
  H 3.419440 0.102603 -4.079978
  H 2.065329 -0.630918 -3.187624
  H 6.115711 -1.582536 -0.610811
 26
 75.987207
  C 2.062294 -0.681218 0.075404
  C 2.704395 0.568352 0.176751
  C 2.999782 1.317009 1.405158
  C 2.520943 0.667116 2.696911
  H 2.788866 1.296792 3.542439
  C 3.324782 0.863461 -1.100713
  C 4.550220 0.164089 -1.218637
  C 4.470199 -1.165876 -1.618021
  C 3.857839 -1.717929 -2.891232
  C 2.897458 -0.838582 -3.664937
  H 2.596200 -1.373775 -4.567562
  O 5.439098 -2.020066 -1.204699
  H 1.650062 -1.130026 0.962044
  H 3.121763 -1.327222 -0.484492
  H 1.524711 -0.937933 -0.834577
  H 2.531373 2.306255 1.297613
  H 4.080504 1.512747 1.448480
  H 2.982298 -0.309470 2.840771
  H 1.438002 0.550806 2.699074
  H 2.678841 0.992167 -1.960805
  H 5.260656 0.355958 -0.417157
  H 3.402730 -2.687162 -2.672613
  H 4.726357 -1.924045 -3.533764
  H 3.378200 0.081396 -3.978791
  H 1.990111 -0.615457 -3.104803
  H 6.049705 -1.634813 -0.555933
 26
 85.506865
  C 2.077527 -0.650653 0.085001
  C 2.680417 0.567588 0.175944
  C 2.973077 1.345179 1.401284
  C 2.480966 0.714294 2.696539
  H 2.740313 1.356626 3.533946
  C 3.361858 0.851701 -1.092943
  C 4.563573 0.124054 -1.189318
  C 4.490764 -1.225846 -1.620508
  C 3.870817 -1.738233 -2.918205
  C 2.864697 -0.853428 -3.632242
  H 2.585651 -1.338818 -4.565042
  O 5.498439 -2.070051 -1.267871
  H 1.675094 -1.107024 0.974058
  H 3.415574 -1.391814 -0.673002
  H 1.624833 -1.000297 -0.831975
  H 2.506797 2.328186 1.278165
  H 4.050349 1.531640 1.451168
  H 2.943489 -0.255758 2.858097
  H 1.401092 0.594503 2.690698
  H 2.733913 1.009582 -1.957963
  H 5.294646 0.320563 -0.408057
  H 3.441960 -2.722217 -2.723187
  H 4.724787 -1.901394 -3.582558
  H 3.296902 0.110984 -3.883907
  H 1.950548 -0.718528 -3.059934
  H 6.127058 -1.688482 -0.635583
 26
 73.755095
  C 1.886957 -0.549077 0.176111
  C 2.611537 0.565612 0.224777
  C 2.999295 1.367771 1.425848
  C 2.469177 0.816442 2.743454
  H 2.831681 1.430232 3.566083
  C 3.301845 0.738958 -1.056116
  C 4.499956 0.049477 -1.148092
  C 4.544893 -1.329089 -1.663810
  C 3.979047 -1.760507 -3.027680
  C 2.903444 -0.891997 -3.655340
  H 2.649209 -1.315215 -4.625061
  O 5.670218 -2.075265 -1.413213
  H 1.420690 -0.938492 1.065709
  H 3.728594 -1.611760 -0.870482
  H 1.544607 -0.981344 -0.746195
  H 2.613165 2.377859 1.271804
  H 4.086785 1.456126 1.471926
  H 2.807851 -0.200820 2.908214
  H 1.382860 0.834508 2.765918
  H 2.659642 0.836623 -1.920834
  H 5.210385 0.238195 -0.345741
  H 3.630827 -2.788921 -2.924865
  H 4.844649 -1.788867 -3.694329
  H 3.257983 0.123508 -3.827372
  H 1.992979 -0.880487 -3.064790
  H 6.300670 -1.651179 -0.819664
 26
 63.250092
  C 1.730754 -0.518723 0.384463
  C 2.588201 0.508273 0.333388
  C 3.064943 1.355448 1.467557
  C 2.427630 1.017015 2.806665
  H 2.761349 1.730438 3.557622
  C 3.243306 0.529977 -0.974390
  C 4.452212 -0.115509 -1.112188
  C 4.614100 -1.421324 -1.784402
  C 4.144220 -1.700551 -3.228177
  C 2.943298 -0.941770 -3.754581
  H 2.798976 -1.222167 -4.795032
  O 5.820628 -2.065050 -1.624191
  H 1.284898 -0.841987 1.308375
  H 3.858824 -1.893053 -1.077073
  H 1.357330 -0.986989 -0.509956
  H 2.827854 2.390461 1.200415
  H 4.152598 1.296163 1.548966
  H 2.712785 0.021846 3.137551
  H 1.344407 1.073895 2.748319
  H 2.610006 0.727469 -1.828984
  H 5.214546 0.099343 -0.365207
  H 3.969860 -2.775196 -3.295450
  H 5.011682 -1.479792 -3.855524
  H 3.104599 0.130921 -3.732712
  H 2.031440 -1.202352 -3.222268
  H 6.319221 -1.762862 -0.848028
 26
 54.418839
  C 1.495700 -0.348620 0.409577
  C 2.514362 0.525463 0.326003
  C 3.108687 1.314702 1.445359
  C 2.504321 1.030468 2.811406
  H 2.992711 1.645958 3.563119
  C 3.170287 0.390985 -0.961393
  C 4.410395 -0.193266 -1.070641
  C 4.692495 -1.435852 -1.807481
  C 4.265591 -1.680795 -3.271174
  C 3.011826 -1.001491 -3.786811
  H 2.857261 -1.323556 -4.814689
  O 5.967666 -1.955682 -1.673728
  H 0.985339 -0.559221 1.336044
  H 4.008043 -2.046925 -1.143807
  H 1.133711 -0.867428 -0.459008
  H 2.958343 2.367187 1.189873
  H 4.188218 1.155537 1.478653
  H 2.641206 -0.011160 3.093539
  H 1.443714 1.260901 2.826998
  H 2.523261 0.436508 -1.824221
  H 5.135533 0.035834 -0.289088
  H 4.178603 -2.761453 -3.398141
  H 5.122174 -1.359758 -3.867109
  H 3.116521 0.078672 -3.798432
  H 2.128276 -1.295056 -3.225131
  H 6.483863 -1.533810 -0.970656
 26
 51.989253
  C 1.527577 -0.490711 0.677052
  C 2.471731 0.440261 0.424989
  C 3.085193 1.368068 1.410603
  C 2.553861 1.226506 2.826565
  H 3.032769 1.958606 3.471949
  C 3.052352 0.209593 -0.903337
  C 4.335732 -0.264049 -1.066970
  C 4.578608 -1.508556 -1.854873
  C 4.354714 -1.570668 -3.384546
  C 3.139207 -0.873437 -3.963275
  H 3.161425 -1.004704 -5.043574
  O 5.795910 -2.128273 -1.623320
  H 1.170946 -0.687387 1.675804
  H 3.761105 -2.156263 -1.369012
  H 1.143297 -1.117622 -0.109517
  H 2.887041 2.380953 1.050093
  H 4.168443 1.250623 1.410395
  H 2.765616 0.236957 3.226631
  H 1.484978 1.399266 2.861275
  H 2.344403 -0.017479 -1.676288
  H 5.071111 -0.018179 -0.308959
  H 4.335881 -2.626995 -3.648957
  H 5.261382 -1.143935 -3.814171
  H 3.150754 0.194645 -3.765263
  H 2.206109 -1.319583 -3.608944
  H 6.197958 -1.869495 -0.775292
