 32
 0.000000
  C 0.910812 0.048978 0.267393
  C 2.403026 0.059319 0.084309
  C 3.242007 -0.012337 1.354345
  C 2.525419 -0.088305 2.700415
  C 3.521639 -0.153288 3.852148
  C 2.997547 0.127455 -1.123172
  C 2.354448 0.204908 -2.495848
  C 0.843074 0.217260 -2.714691
  C 0.514260 0.301211 -4.202524
  C 4.456988 0.132318 -1.209370
  C 5.197156 0.194801 -2.316856
  O 6.557380 0.195700 -2.332692
  H 0.599889 -0.008927 1.305208
  H 0.467845 -0.818842 -0.215328
  H 0.467346 0.965193 -0.113617
  H 3.887865 0.871782 1.385678
  H 3.887873 -0.894366 1.286015
  H 1.891988 -0.977693 2.741274
  H 1.891978 0.790832 2.841076
  H 4.157096 -1.033238 3.768847
  H 2.992411 -0.206880 4.801698
  H 4.157086 0.730450 3.868369
  H 2.741339 -0.643892 -3.070959
  H 2.741335 1.113024 -2.971820
  H 0.390983 1.078422 -2.223785
  H 0.390983 -0.693670 -2.323781
  H 0.920845 1.210545 -4.641730
  H -0.564596 0.309299 -4.345873
  H 0.920846 -0.552941 -4.741238
  H 5.001770 0.079719 -0.277186
  H 4.820832 0.251695 -3.325059
  H 6.886300 0.144507 -1.425396
 32
 3.780844
  C 0.912633 0.039563 0.266812
  C 2.400634 0.055797 0.085056
  C 3.243997 -0.011974 1.351669
  C 2.522510 -0.088836 2.695299
  C 3.524267 -0.151187 3.843447
  C 2.996901 0.124162 -1.122711
  C 2.354939 0.202697 -2.495304
  C 0.843116 0.215884 -2.709374
  C 0.524935 0.303892 -4.199843
  C 4.456184 0.129715 -1.211269
  C 5.196594 0.193317 -2.320453
  O 6.556502 0.195054 -2.334720
  H 0.578643 0.053466 1.258116
  H 0.473241 -0.826666 -0.217441
  H 0.436126 0.924092 -0.032763
  H 3.888509 0.872749 1.383639
  H 3.892630 -0.891602 1.285289
  H 1.891435 -0.979204 2.735212
  H 1.888287 0.789097 2.835627
  H 4.161266 -1.029098 3.754805
  H 3.001844 -0.205808 4.796282
  H 4.157687 0.733746 3.853877
  H 2.744745 -0.644759 -3.070002
  H 2.744998 1.110877 -2.967932
  H 0.392081 1.074771 -2.214390
  H 0.390539 -0.694886 -2.320005
  H 0.937847 1.213277 -4.632116
  H -0.552187 0.313530 -4.353615
  H 0.936919 -0.548830 -4.736039
  H 5.003274 0.076925 -0.280527
  H 4.818889 0.250614 -3.327861
  H 6.887569 0.143560 -1.428485
 32
 8.361199
  C 0.903780 0.003339 0.283922
  C 2.386865 0.049239 0.092054
  C 3.240937 -0.006161 1.346801
  C 2.529002 -0.086277 2.691645
  C 3.545013 -0.151425 3.825475
  C 2.985012 0.116012 -1.118181
  C 2.355061 0.193677 -2.498160
  C 0.848259 0.206815 -2.726060
  C 0.555457 0.312189 -4.218993
  C 4.433209 0.125161 -1.201075
  C 5.186478 0.192415 -2.320905
  O 6.539854 0.197675 -2.329070
  H 0.557057 0.132739 1.289367
  H 0.429363 -0.849723 -0.173607
  H 0.368260 0.913799 0.063785
  H 3.881292 0.879682 1.372590
  H 3.893742 -0.880663 1.278809
  H 1.899373 -0.975717 2.730602
  H 1.899379 0.792069 2.840390
  H 4.180123 -1.026172 3.721560
  H 3.041076 -0.208642 4.784621
  H 4.177595 0.731436 3.824868
  H 2.756466 -0.649034 -3.067340
  H 2.751713 1.102935 -2.958156
  H 0.394386 1.054736 -2.221350
  H 0.395606 -0.706574 -2.351868
  H 0.978115 1.224345 -4.629871
  H -0.514860 0.322547 -4.396216
  H 0.981800 -0.531307 -4.754171
  H 4.979170 0.072659 -0.267654
  H 4.811687 0.250148 -3.328398
  H 6.867259 0.145913 -1.428158
 32
 15.664483
  C 0.939347 -0.003681 0.246803
  C 2.419895 0.047293 0.075058
  C 3.253418 -0.005310 1.345212
  C 2.505407 -0.084295 2.675210
  C 3.493758 -0.150097 3.838281
  C 3.023739 0.114121 -1.139133
  C 2.373728 0.192106 -2.499348
  C 0.858000 0.203539 -2.683212
  C 0.520423 0.313679 -4.169612
  C 4.488410 0.124604 -1.240755
  C 5.214255 0.192233 -2.344712
  O 6.577680 0.198349 -2.365748
  H 0.530858 0.180413 1.230150
  H 0.478569 -0.868126 -0.220353
  H 0.368833 0.900849 0.080003
  H 3.893597 0.883211 1.384255
  H 3.909266 -0.881447 1.292908
  H 1.872887 -0.973399 2.697494
  H 1.871980 0.795183 2.806953
  H 4.131845 -1.027600 3.751124
  H 2.963755 -0.206497 4.786777
  H 4.128474 0.734168 3.853765
  H 2.763875 -0.651521 -3.079528
  H 2.760042 1.104427 -2.967897
  H 0.416582 1.052307 -2.158875
  H 0.416349 -0.715252 -2.296652
  H 0.930387 1.229954 -4.590422
  H -0.557670 0.322966 -4.315977
  H 0.933029 -0.529184 -4.720962
  H 5.046203 0.071873 -0.319613
  H 4.827704 0.250992 -3.348003
  H 6.919636 0.144887 -1.456702
 32
 22.830678
  C 0.943497 -0.034677 0.217535
  C 2.426002 0.038603 0.062101
  C 3.261248 -0.000311 1.337837
  C 2.504862 -0.080456 2.664031
  C 3.484500 -0.139621 3.834807
  C 3.029664 0.105425 -1.143062
  C 2.376304 0.186350 -2.498724
  C 0.859209 0.201677 -2.665841
  C 0.504803 0.326996 -4.147147
  C 4.497076 0.117001 -1.237508
  C 5.235940 0.189367 -2.346949
  O 6.606323 0.196024 -2.361436
  H 0.520392 0.210630 1.178263
  H 0.460682 -0.893598 -0.231557
  H 0.363937 0.873356 0.093081
  H 3.893977 0.892756 1.375177
  H 3.923617 -0.871252 1.291643
  H 1.875237 -0.971855 2.681866
  H 1.866080 0.796607 2.788720
  H 4.127300 -1.014305 3.754611
  H 2.947078 -0.196495 4.779009
  H 4.115834 0.746963 3.853984
  H 2.760560 -0.654385 -3.085162
  H 2.759472 1.099639 -2.965985
  H 0.426111 1.045837 -2.126570
  H 0.420205 -0.721015 -2.282969
  H 0.911082 1.246600 -4.564356
  H -0.574906 0.339136 -4.279894
  H 0.909442 -0.510474 -4.712351
  H 5.047537 0.061311 -0.311808
  H 4.854722 0.251689 -3.352771
  H 6.945529 0.138721 -1.445663
 32
 29.136933
  C 0.930933 -0.058034 0.264560
  C 2.400665 0.032411 0.076278
  C 3.258254 0.003319 1.338919
  C 2.533418 -0.078340 2.681149
  C 3.537739 -0.135746 3.827459
  C 2.997159 0.100145 -1.129463
  C 2.358447 0.184302 -2.513702
  C 0.846848 0.202461 -2.728069
  C 0.538215 0.337928 -4.217709
  C 4.452707 0.111220 -1.208996
  C 5.199729 0.187228 -2.309744
  O 6.565840 0.196401 -2.312325
  H 0.511252 0.230895 1.231192
  H 0.428491 -0.906309 -0.158897
  H 0.335552 0.860976 0.192428
  H 3.886992 0.898434 1.361232
  H 3.924243 -0.862727 1.281968
  H 1.905888 -0.971231 2.712792
  H 1.896055 0.797894 2.822288
  H 4.180188 -1.009506 3.731995
  H 3.022138 -0.193873 4.783956
  H 4.167576 0.752486 3.832012
  H 2.754566 -0.655273 -3.092187
  H 2.752798 1.096808 -2.970289
  H 0.398671 1.041308 -2.198625
  H 0.397594 -0.720775 -2.366707
  H 0.957486 1.260528 -4.615855
  H -0.537253 0.351286 -4.384237
  H 0.960415 -0.496368 -4.775516
  H 4.995190 0.052208 -0.274408
  H 4.826699 0.253177 -3.318241
  H 6.894904 0.136688 -1.399487
 32
 34.616596
  C 0.960710 -0.056227 0.235146
  C 2.419249 0.035145 0.068652
  C 3.258035 0.002042 1.343851
  C 2.511570 -0.072335 2.670585
  C 3.493589 -0.142715 3.831027
  C 3.023441 0.101458 -1.138242
  C 2.378961 0.178717 -2.503792
  C 0.869775 0.192810 -2.690745
  C 0.535573 0.331589 -4.170871
  C 4.471739 0.119579 -1.231542
  C 5.207986 0.199004 -2.346853
  O 6.562242 0.208352 -2.367195
  H 0.519160 0.260765 1.196556
  H 0.451316 -0.893405 -0.190005
  H 0.359713 0.874771 0.198349
  H 3.891441 0.890936 1.374567
  H 3.916641 -0.868512 1.299965
  H 1.873259 -0.957005 2.690315
  H 1.883253 0.809603 2.802206
  H 4.126010 -1.023059 3.745372
  H 2.962298 -0.195347 4.776830
  H 4.132750 0.736550 3.846916
  H 2.769953 -0.657431 -3.085455
  H 2.765493 1.087938 -2.967685
  H 0.428399 1.029307 -2.150272
  H 0.430772 -0.734498 -2.323515
  H 0.943790 1.255745 -4.572394
  H -0.540490 0.341373 -4.318247
  H 0.950516 -0.498162 -4.737617
  H 5.023388 0.060508 -0.307902
  H 4.822552 0.265338 -3.348956
  H 6.898052 0.147475 -1.468297
 32
 40.058596
  C 0.960670 -0.055314 0.229555
  C 2.436927 0.036478 0.069870
  C 3.263563 0.001050 1.337744
  C 2.507635 -0.065469 2.657566
  C 3.480028 -0.146816 3.822605
  C 3.045959 0.102368 -1.133627
  C 2.382957 0.177030 -2.517450
  C 0.867289 0.186280 -2.682009
  C 0.506730 0.327304 -4.158192
  C 4.497837 0.124717 -1.223825
  C 5.235193 0.207580 -2.334273
  O 6.600035 0.215815 -2.351017
  H 0.512517 0.281736 1.179630
  H 0.433349 -0.886153 -0.205307
  H 0.367340 0.879840 0.225648
  H 3.900740 0.882726 1.370186
  H 3.913510 -0.872557 1.297689
  H 1.858706 -0.944820 2.673053
  H 1.887166 0.825522 2.786505
  H 4.104187 -1.036347 3.739821
  H 2.940628 -0.193745 4.766821
  H 4.129819 0.727382 3.842160
  H 2.767294 -0.660176 -3.102076
  H 2.759590 1.087841 -2.987808
  H 0.432431 1.019118 -2.131125
  H 0.439202 -0.742168 -2.308781
  H 0.905594 1.256601 -4.564994
  H -0.575329 0.332965 -4.287946
  H 0.916661 -0.501638 -4.734878
  H 5.047821 0.063352 -0.300822
  H 4.852460 0.276783 -3.338575
  H 6.929668 0.151856 -1.458180
 32
 44.529452
  C 0.965223 -0.059647 0.231686
  C 2.430498 0.035555 0.069681
  C 3.259605 0.001609 1.338758
  C 2.505316 -0.060315 2.658191
  C 3.475971 -0.146957 3.818952
  C 3.039758 0.102253 -1.134507
  C 2.383629 0.174342 -2.512060
  C 0.873599 0.182382 -2.682424
  C 0.520811 0.327265 -4.155975
  C 4.487335 0.127860 -1.227033
  C 5.223081 0.215051 -2.340963
  O 6.587768 0.220488 -2.362040
  H 0.522548 0.290041 1.180954
  H 0.428259 -0.877721 -0.202436
  H 0.378085 0.875536 0.265194
  H 3.897256 0.878412 1.369469
  H 3.905060 -0.871478 1.300116
  H 1.851818 -0.936006 2.674485
  H 1.891191 0.834237 2.787778
  H 4.094395 -1.040651 3.735085
  H 2.936911 -0.190273 4.763584
  H 4.130766 0.723394 3.836995
  H 2.769721 -0.660246 -3.093805
  H 2.759864 1.083315 -2.980686
  H 0.435071 1.013601 -2.129902
  H 0.444514 -0.749281 -2.313273
  H 0.920534 1.258772 -4.557833
  H -0.561064 0.331683 -4.290658
  H 0.935049 -0.499505 -4.733175
  H 5.036693 0.064033 -0.312103
  H 4.836757 0.287417 -3.345205
  H 6.922276 0.151454 -1.465883
 32
 48.305690
  C 0.961678 -0.081892 0.223254
  C 2.422130 0.027765 0.060595
  C 3.261929 0.005644 1.332221
  C 2.511563 -0.054319 2.658993
  C 3.493366 -0.134471 3.825545
  C 3.031010 0.096646 -1.143567
  C 2.378693 0.171720 -2.516430
  C 0.858920 0.184850 -2.690420
  C 0.506791 0.342148 -4.169816
  C 4.490017 0.118703 -1.225677
  C 5.236046 0.210684 -2.328530
  O 6.588023 0.216737 -2.332150
  H 0.507612 0.273471 1.181368
  H 0.425839 -0.897776 -0.223068
  H 0.358425 0.863408 0.292896
  H 3.900822 0.894541 1.355317
  H 3.917881 -0.870918 1.294514
  H 1.859909 -0.932309 2.680152
  H 1.893948 0.839761 2.787189
  H 4.113525 -1.024747 3.744330
  H 2.960119 -0.175778 4.770458
  H 4.145655 0.736227 3.839329
  H 2.767812 -0.668215 -3.102441
  H 2.761428 1.086695 -2.983688
  H 0.421300 1.013119 -2.132240
  H 0.426018 -0.748926 -2.329343
  H 0.907039 1.272068 -4.563559
  H -0.569887 0.349878 -4.306405
  H 0.918354 -0.478097 -4.751264
  H 5.041210 0.046379 -0.285253
  H 4.865960 0.289773 -3.328609
  H 6.913953 0.141345 -1.422650
 32
 52.259562
  C 0.948483 -0.112758 0.231956
  C 2.404577 0.015186 0.065692
  C 3.253071 0.009593 1.338764
  C 2.519252 -0.049001 2.669911
  C 3.509523 -0.115749 3.820246
  C 3.013956 0.086863 -1.136877
  C 2.375378 0.167924 -2.507338
  C 0.861566 0.187771 -2.701198
  C 0.532409 0.361405 -4.180532
  C 4.478256 0.108746 -1.221979
  C 5.219167 0.207881 -2.327302
  O 6.578255 0.212011 -2.338449
  H 0.488047 0.249072 1.190670
  H 0.410882 -0.915522 -0.227612
  H 0.337939 0.839751 0.333645
  H 3.879188 0.896675 1.351729
  H 3.912044 -0.853782 1.303344
  H 1.876120 -0.930853 2.702972
  H 1.898222 0.840754 2.801399
  H 4.135097 -1.003244 3.735551
  H 2.985620 -0.155973 4.771844
  H 4.155529 0.760551 3.821476
  H 2.768414 -0.669220 -3.092802
  H 2.766303 1.083793 -2.965354
  H 0.418145 1.012943 -2.139638
  H 0.419021 -0.750822 -2.355925
  H 0.942291 1.296382 -4.559069
  H -0.545798 0.373770 -4.332622
  H 0.951334 -0.455930 -4.765052
  H 5.026169 0.030407 -0.294607
  H 4.843253 0.293151 -3.326886
  H 6.906954 0.129478 -1.433021
 32
 56.051569
  C 0.960608 -0.122432 0.228339
  C 2.407300 0.012519 0.060738
  C 3.255122 0.011669 1.336225
  C 2.513852 -0.041362 2.666762
  C 3.503802 -0.107208 3.827167
  C 3.018637 0.083494 -1.145211
  C 2.377318 0.163297 -2.511699
  C 0.863063 0.190917 -2.697935
  C 0.527036 0.370801 -4.175880
  C 4.472458 0.095623 -1.227990
  C 5.217077 0.197973 -2.330114
  O 6.587009 0.228625 -2.334034
  H 0.501070 0.235575 1.184071
  H 0.412889 -0.913483 -0.252012
  H 0.355508 0.825569 0.366510
  H 3.886568 0.903457 1.347706
  H 3.919203 -0.858240 1.306967
  H 1.865137 -0.926997 2.699686
  H 1.892365 0.853931 2.793409
  H 4.127184 -0.996047 3.748255
  H 2.977288 -0.142943 4.773206
  H 4.151512 0.766845 3.828609
  H 2.763521 -0.674031 -3.096967
  H 2.769877 1.074343 -2.971044
  H 0.426681 1.017264 -2.131794
  H 0.416934 -0.748723 -2.353181
  H 0.936949 1.300405 -4.552009
  H -0.544357 0.388281 -4.321555
  H 0.937328 -0.442718 -4.762383
  H 5.026036 0.012554 -0.285749
  H 4.844522 0.295554 -3.331850
  H 6.910234 0.150788 -1.434826
 32
 59.439787
  C 0.965520 -0.138959 0.227472
  C 2.415893 0.005213 0.063594
  C 3.259273 0.013714 1.336561
  C 2.516565 -0.033911 2.659211
  C 3.495689 -0.092777 3.817247
  C 3.026575 0.082031 -1.140668
  C 2.377972 0.163689 -2.514429
  C 0.860660 0.189005 -2.694838
  C 0.516242 0.381909 -4.171916
  C 4.485302 0.102182 -1.222108
  C 5.233399 0.210313 -2.323666
  O 6.588771 0.212594 -2.326837
  H 0.497524 0.206721 1.197171
  H 0.415865 -0.906976 -0.272744
  H 0.355814 0.806083 0.410501
  H 3.883904 0.902548 1.344605
  H 3.920224 -0.848865 1.313070
  H 1.873809 -0.913235 2.693623
  H 1.896889 0.855448 2.778605
  H 4.119908 -0.980130 3.745417
  H 2.964817 -0.124726 4.763467
  H 4.142193 0.781094 3.817378
  H 2.765747 -0.671663 -3.106113
  H 2.765458 1.080345 -2.972090
  H 0.425443 1.007236 -2.119495
  H 0.419972 -0.751475 -2.358329
  H 0.924023 1.322246 -4.543637
  H -0.564462 0.397349 -4.313891
  H 0.928959 -0.429675 -4.771468
  H 5.031084 0.010832 -0.292340
  H 4.864104 0.306815 -3.323238
  H 6.913320 0.120027 -1.418678
 32
 62.403915
  C 0.966484 -0.159846 0.226951
  C 2.413700 -0.003029 0.062463
  C 3.257044 0.016553 1.333198
  C 2.510132 -0.024116 2.669863
  C 3.490207 -0.076114 3.826557
  C 3.024452 0.076810 -1.142158
  C 2.378038 0.161672 -2.515530
  C 0.866740 0.189626 -2.698260
  C 0.526395 0.397922 -4.171732
  C 4.483327 0.101794 -1.227315
  C 5.225606 0.217307 -2.331388
  O 6.587574 0.206834 -2.341893
  H 0.493389 0.171549 1.213345
  H 0.409578 -0.911332 -0.292020
  H 0.349598 0.784432 0.458853
  H 3.885169 0.914311 1.333179
  H 3.924088 -0.851222 1.312869
  H 1.870006 -0.900461 2.712085
  H 1.892845 0.863181 2.786208
  H 4.112968 -0.962035 3.759300
  H 2.961798 -0.102325 4.773263
  H 4.135923 0.796023 3.820559
  H 2.764756 -0.668656 -3.107941
  H 2.764862 1.075342 -2.967003
  H 0.429822 1.003948 -2.113106
  H 0.424420 -0.755453 -2.372340
  H 0.934775 1.341647 -4.532373
  H -0.552633 0.414793 -4.315997
  H 0.940273 -0.406607 -4.778503
  H 5.032860 0.002255 -0.300629
  H 4.848799 0.318590 -3.332741
  H 6.914652 0.103720 -1.439280
