 12
 0.000000
  C 0.958743 0.150251 0.429088
  C 2.418975 0.142339 0.401278
  C 3.223347 0.596636 1.530423
  H 2.636643 0.936287 2.376617
  C 3.034443 -0.323120 -0.752004
  H 4.103349 -0.371782 -0.869468
  H 0.547268 0.518308 1.363514
  H 0.581362 -0.857848 0.228607
  H 0.568715 0.746480 -0.401698
  H 3.900008 1.394965 1.207816
  H 3.901044 -0.202021 1.849848
  H 2.405102 -0.654969 -1.561952
 12
 1.974968
  C 0.976101 0.156994 0.412430
  C 2.431972 0.163871 0.418653
  C 3.241494 0.617371 1.553379
  H 2.643375 0.970435 2.389397
  C 2.997899 -0.336569 -0.735670
  H 4.058265 -0.398088 -0.917875
  H 0.510430 0.433597 1.353267
  H 0.690199 -0.848149 0.067974
  H 0.587518 0.798078 -0.388237
  H 3.935428 1.402740 1.227529
  H 3.915972 -0.181188 1.885604
  H 2.293596 -0.704624 -1.465483
 12
 6.099733
  C 0.993401 0.155582 0.403332
  C 2.447729 0.182467 0.439016
  C 3.245327 0.636339 1.558968
  H 2.648385 1.001657 2.378947
  C 2.982780 -0.353908 -0.719019
  H 4.024424 -0.436392 -0.949320
  H 0.485764 0.332136 1.345833
  H 0.792174 -0.815277 -0.087818
  H 0.612569 0.866565 -0.336688
  H 3.943964 1.408975 1.226291
  H 3.906558 -0.161366 1.904090
  H 2.200366 -0.749325 -1.370469
 12
 12.324728
  C 1.003198 0.144515 0.388212
  C 2.456717 0.189238 0.446468
  C 3.254742 0.658777 1.567216
  H 2.653043 1.042096 2.379988
  C 2.968288 -0.377162 -0.709069
  H 3.998293 -0.485362 -0.974648
  H 0.469098 0.224480 1.326507
  H 0.871351 -0.774805 -0.227266
  H 0.623095 0.924453 -0.282874
  H 3.961422 1.421747 1.227694
  H 3.906004 -0.140856 1.929262
  H 2.115513 -0.770514 -1.292670
 12
 20.179076
  C 1.012216 0.132007 0.377991
  C 2.461805 0.189843 0.449869
  C 3.257792 0.681323 1.566161
  H 2.652956 1.086408 2.365970
  C 2.957166 -0.400450 -0.700807
  H 3.985729 -0.561624 -0.975748
  H 0.465297 0.106272 1.311261
  H 0.941571 -0.719667 -0.354829
  H 0.623128 0.972687 -0.207506
  H 3.971571 1.432410 1.216675
  H 3.898391 -0.116113 1.949922
  H 2.047600 -0.757041 -1.237483
 12
 29.490981
  C 1.020137 0.124012 0.373875
  C 2.470005 0.191743 0.450440
  C 3.262712 0.701204 1.562526
  H 2.651048 1.128628 2.351528
  C 2.951802 -0.416429 -0.694581
  H 3.968153 -0.645257 -0.957795
  H 0.471054 -0.000296 1.302012
  H 1.004285 -0.669087 -0.462688
  H 0.611653 0.998066 -0.143899
  H 3.979560 1.442300 1.205648
  H 3.890718 -0.093600 1.967821
  H 1.986868 -0.723827 -1.212074
 12
 38.759803
  C 1.027654 0.117592 0.375577
  C 2.482742 0.194962 0.449689
  C 3.270624 0.724803 1.561324
  H 2.649796 1.169463 2.331940
  C 2.944869 -0.423320 -0.686033
  H 3.936655 -0.759493 -0.927500
  H 0.488830 -0.117075 1.289330
  H 1.052833 -0.618124 -0.563440
  H 0.593057 1.008334 -0.084525
  H 3.987901 1.465293 1.198355
  H 3.887738 -0.068238 1.993520
  H 1.933812 -0.665496 -1.215328
 12
 48.026083
  C 1.037716 0.120725 0.376844
  C 2.493761 0.192131 0.448931
  C 3.276648 0.733716 1.567341
  H 2.644771 1.186354 2.324219
  C 2.934957 -0.424407 -0.676987
  H 3.901485 -0.817021 -0.931739
  H 0.508741 -0.176690 1.278443
  H 1.094580 -0.606673 -0.623716
  H 0.585173 1.010932 -0.062202
  H 4.001313 1.483025 1.202015
  H 3.870588 -0.044722 2.011049
  H 1.888742 -0.641722 -1.215097
 12
 55.726003
  C 1.038734 0.132746 0.387151
  C 2.500712 0.192606 0.446802
  C 3.279863 0.747168 1.567926
  H 2.639276 1.209461 2.309548
  C 2.942824 -0.423870 -0.665894
  H 3.886147 -0.851989 -0.946544
  H 0.517151 -0.213352 1.275973
  H 1.109453 -0.609142 -0.683016
  H 0.578236 1.015476 -0.041991
  H 3.988627 1.482702 1.205883
  H 3.879145 -0.044688 2.040270
  H 1.853444 -0.638193 -1.227728
 12
 62.337074
  C 1.038269 0.144999 0.403330
  C 2.502508 0.184417 0.447037
  C 3.280355 0.748065 1.570812
  H 2.632609 1.219686 2.302796
  C 2.952892 -0.427887 -0.655649
  H 3.877583 -0.874778 -0.961328
  H 0.524854 -0.240904 1.277088
  H 1.114847 -0.619814 -0.741032
  H 0.567860 1.025530 -0.021317
  H 3.996793 1.488405 1.202529
  H 3.862028 -0.030928 2.050947
  H 1.828965 -0.645369 -1.247676
 12
 69.260789
  C 1.032758 0.168900 0.424931
  C 2.498501 0.173096 0.447050
  C 3.279666 0.743689 1.571289
  H 2.628613 1.223907 2.296376
  C 2.966857 -0.426330 -0.646746
  H 3.890209 -0.849403 -0.983494
  H 0.520335 -0.229572 1.291269
  H 1.109713 -0.659073 -0.799449
  H 0.560378 1.037571 -0.017651
  H 3.994066 1.479105 1.198186
  H 3.856219 -0.035469 2.063159
  H 1.799076 -0.686465 -1.275151
 12
 75.998451
  C 1.029019 0.197893 0.456682
  C 2.487831 0.163837 0.441671
  C 3.276198 0.738745 1.568196
  H 2.624347 1.227961 2.287180
  C 2.977989 -0.426942 -0.635444
  H 3.900861 -0.825976 -0.996988
  H 0.521378 -0.213360 1.318129
  H 1.104518 -0.709509 -0.879303
  H 0.549257 1.049903 -0.005264
  H 3.992189 1.468694 1.188731
  H 3.842615 -0.041288 2.068275
  H 1.778481 -0.730998 -1.323514
 12
 81.516109
  C 1.023182 0.239489 0.502749
  C 2.462612 0.161830 0.429330
  C 3.268533 0.730603 1.559829
  H 2.622627 1.228799 2.278409
  C 2.978197 -0.427486 -0.624912
  H 3.904853 -0.791450 -1.010271
  H 0.526944 -0.169993 1.369482
  H 1.113300 -0.790765 -0.986073
  H 0.530558 1.063172 0.011241
  H 3.988579 1.450873 1.173742
  H 3.821792 -0.059685 2.060678
  H 1.785623 -0.793805 -1.393582
 12
 85.238759
  C 1.007554 0.281613 0.551717
  C 2.424892 0.165688 0.410726
  C 3.261339 0.717944 1.540897
  H 2.631314 1.222273 2.268646
  C 2.963745 -0.424742 -0.622953
  H 3.901443 -0.762671 -1.004288
  H 0.529720 -0.102997 1.437345
  H 1.147943 -0.906310 -1.117118
  H 0.501693 1.081379 0.036464
  H 3.986254 1.427841 1.146767
  H 3.803156 -0.087356 2.029641
  H 1.824939 -0.867700 -1.483886
