 17
 0.000000
  C 1.007427 -0.071437 0.047816
  C 2.503498 -0.082543 0.026017
  C 3.220070 -0.594632 -0.979302
  C 4.656824 -0.606111 -1.001833
  C 5.378376 -1.121187 -2.013013
  C 6.817216 -1.130468 -2.031231
  C 7.531976 -1.641104 -3.033703
  H 8.603995 -1.654759 -3.060505
  H 0.643479 0.394144 0.961823
  H 0.612566 -1.085962 0.006904
  H 0.612566 0.491968 -0.796879
  H 3.004100 0.352579 0.880235
  H 2.709831 -1.028065 -1.830194
  H 5.161217 -0.171370 -0.148369
  H 4.871897 -1.556411 -2.867431
  H 7.324184 -0.696325 -1.178935
  H 7.034110 -2.076675 -3.888789
 17
 -0.070594
  C 1.005433 -0.068918 0.055744
  C 2.499829 -0.085751 0.030335
  C 3.218695 -0.589998 -0.977032
  C 4.654282 -0.606642 -1.003451
  C 5.379165 -1.104218 -2.020397
  C 6.816507 -1.125993 -2.040838
  C 7.529344 -1.648023 -3.037976
  H 8.605169 -1.660239 -3.041519
  H 0.637078 0.395812 0.966424
  H 0.609064 -1.082758 0.004265
  H 0.613180 0.486851 -0.795276
  H 3.005829 0.340618 0.885708
  H 2.711050 -1.016802 -1.833348
  H 5.159774 -0.175514 -0.148066
  H 4.879262 -1.559182 -2.866539
  H 7.323912 -0.685813 -1.191313
  H 7.046058 -2.091688 -3.893910
 17
 -0.115906
  C 1.005650 -0.075904 0.062486
  C 2.499806 -0.090396 0.031636
  C 3.218582 -0.583281 -0.981032
  C 4.653532 -0.600542 -1.010416
  C 5.379178 -1.084852 -2.033041
  C 6.816236 -1.117538 -2.050581
  C 7.531533 -1.665978 -3.031286
  H 8.606868 -1.682514 -3.015101
  H 0.636074 0.395335 0.968643
  H 0.611809 -1.091850 0.015050
  H 0.609522 0.466673 -0.796971
  H 3.009992 0.330511 0.888268
  H 2.711983 -1.004266 -1.840558
  H 5.159960 -0.182941 -0.148625
  H 4.875869 -1.511886 -2.891275
  H 7.318611 -0.663297 -1.205629
  H 7.058083 -2.123617 -3.884634
 17
 -0.024460
  C 1.007613 -0.085317 0.063269
  C 2.498798 -0.097183 0.032220
  C 3.218469 -0.571205 -0.988956
  C 4.653786 -0.594416 -1.014835
  C 5.380389 -1.057841 -2.046537
  C 6.817341 -1.105183 -2.056608
  C 7.529546 -1.677652 -3.025595
  H 8.605492 -1.712257 -3.001133
  H 0.637119 0.418284 0.953092
  H 0.617731 -1.104350 0.055612
  H 0.608430 0.422598 -0.816543
  H 3.007583 0.308997 0.896010
  H 2.712839 -0.972615 -1.858126
  H 5.159683 -0.203304 -0.141145
  H 4.885149 -1.484765 -2.909332
  H 7.323638 -0.649800 -1.215288
  H 7.055195 -2.135288 -3.878534
 17
 -0.009607
  C 1.012858 0.031615 0.008746
  C 2.488879 -0.190048 0.055539
  C 3.231037 -0.491841 -1.013708
  C 4.647099 -0.722961 -0.966498
  C 5.399468 -1.004790 -2.043955
  C 6.812785 -1.264639 -1.989792
  C 7.527600 -1.668364 -3.038752
  H 8.582554 -1.870724 -2.969118
  H 0.645077 0.426427 0.951764
  H 0.494593 -0.905802 -0.194122
  H 0.751175 0.728292 -0.789399
  H 2.966322 -0.092953 1.022544
  H 2.759984 -0.578715 -1.982911
  H 5.119102 -0.646263 0.006938
  H 4.931809 -1.132453 -3.012248
  H 7.298906 -1.119294 -1.030898
  H 7.074369 -1.818232 -4.004738
 17
 0.370125
  C 1.005693 -0.089243 0.051589
  C 2.501009 -0.103871 0.029112
  C 3.225322 -0.566442 -0.993187
  C 4.660153 -0.594311 -1.010200
  C 5.392322 -1.045496 -2.043712
  C 6.827452 -1.106203 -2.055674
  C 7.523964 -1.663103 -3.045259
  H 8.598762 -1.713991 -3.030780
  H 0.632314 0.459580 0.908565
  H 0.616085 -1.106363 0.102837
  H 0.609527 0.365301 -0.853338
  H 3.008196 0.299201 0.902708
  H 2.725207 -0.949530 -1.873964
  H 5.164476 -0.235463 -0.120960
  H 4.907203 -1.517863 -2.887580
  H 7.346526 -0.659842 -1.218169
  H 7.033890 -2.114196 -3.894001
 17
 0.156329
  C 1.007546 -0.085954 0.051713
  C 2.506298 -0.104396 0.024603
  C 3.225717 -0.587617 -0.992563
  C 4.657799 -0.612341 -1.015290
  C 5.390219 -1.091093 -2.033922
  C 6.825341 -1.115599 -2.057658
  C 7.538445 -1.666778 -3.040512
  H 8.612675 -1.661239 -3.033654
  H 0.635193 0.379587 0.965025
  H 0.615116 -1.093551 -0.001519
  H 0.613003 0.463688 -0.805929
  H 3.015697 0.308930 0.889170
  H 2.722425 -0.987897 -1.856423
  H 5.166070 -0.184934 -0.154701
  H 4.891836 -1.528032 -2.892595
  H 7.332587 -0.638925 -1.229645
  H 7.070283 -2.153659 -3.883409
 17
 0.047596
  C 1.016486 -0.104347 0.060154
  C 2.510214 -0.105990 0.025875
  C 3.230609 -0.569330 -0.999710
  C 4.666111 -0.574187 -1.032223
  C 5.393512 -1.058849 -2.052851
  C 6.830009 -1.082939 -2.077346
  C 7.536799 -1.697150 -3.025126
  H 8.613603 -1.723062 -3.012523
  H 0.644952 0.314712 0.991152
  H 0.630041 -1.120793 -0.041359
  H 0.615542 0.477753 -0.765986
  H 3.018030 0.303337 0.887794
  H 2.725348 -0.976991 -1.868133
  H 5.172363 -0.142629 -0.177056
  H 4.892393 -1.524342 -2.893251
  H 7.340016 -0.565514 -1.275359
  H 7.054849 -2.220884 -3.833773
 17
 0.036922
  C 1.022455 -0.028903 0.025354
  C 2.513001 -0.144354 0.038608
  C 3.238034 -0.543771 -1.009937
  C 4.669045 -0.657506 -0.997206
  C 5.401912 -1.039494 -2.057596
  C 6.833691 -1.172342 -2.033789
  C 7.547397 -1.680618 -3.036936
  H 8.616837 -1.788395 -2.981950
  H 0.653756 0.402047 0.951490
  H 0.565698 -1.011838 -0.100891
  H 0.691564 0.592046 -0.805214
  H 3.015223 0.122857 0.960126
  H 2.739680 -0.803616 -1.936964
  H 5.166438 -0.396756 -0.070122
  H 4.897232 -1.359252 -2.960041
  H 7.331401 -0.833059 -1.133763
  H 7.076176 -2.028539 -3.941454
 17
 0.120643
  C 1.027764 -0.010262 0.019582
  C 2.517434 -0.146557 0.044929
  C 3.249102 -0.521088 -1.007887
  C 4.678005 -0.675603 -0.977148
  C 5.418197 -1.028708 -2.040992
  C 6.842266 -1.219735 -2.010035
  C 7.539301 -1.673255 -3.050805
  H 8.603056 -1.816974 -3.008394
  H 0.655164 0.406571 0.948723
  H 0.559659 -0.983910 -0.133634
  H 0.712399 0.631824 -0.803607
  H 3.010783 0.078401 0.978661
  H 2.760110 -0.739006 -1.948633
  H 5.166288 -0.482303 -0.031566
  H 4.931660 -1.275377 -2.978668
  H 7.355112 -0.978813 -1.088735
  H 7.060783 -1.918200 -3.985260
 17
 0.227525
  C 1.024424 -0.053432 0.018693
  C 2.517732 -0.137558 0.031752
  C 3.249712 -0.548124 -1.007876
  C 4.682998 -0.632861 -0.994489
  C 5.421508 -1.031094 -2.042935
  C 6.854440 -1.148349 -2.014250
  C 7.563035 -1.667279 -3.016864
  H 8.633604 -1.763039 -2.971272
  H 0.644020 0.345727 0.954736
  H 0.589147 -1.040075 -0.139620
  H 0.681778 0.583561 -0.797703
  H 3.015126 0.164622 0.943363
  H 2.756667 -0.851043 -1.923338
  H 5.178484 -0.332336 -0.080083
  H 4.941799 -1.388190 -2.946332
  H 7.365372 -0.790417 -1.130842
  H 7.088846 -2.029978 -3.915734
 17
 -0.068768
  C 1.020484 -0.065684 0.014537
  C 2.515638 -0.131180 0.016012
  C 3.240736 -0.568474 -1.013631
  C 4.678290 -0.637776 -1.013248
  C 5.411643 -1.061107 -2.057662
  C 6.841821 -1.167432 -2.030603
  C 7.562064 -1.669563 -3.034329
  H 8.632859 -1.749324 -2.985465
  H 0.647578 0.362619 0.936707
  H 0.591963 -1.064345 -0.102300
  H 0.662396 0.538491 -0.820501
  H 3.018104 0.195466 0.916274
  H 2.741856 -0.893978 -1.921397
  H 5.179774 -0.305688 -0.109806
  H 4.916429 -1.399011 -2.963232
  H 7.337715 -0.815809 -1.135506
  H 7.094247 -2.028153 -3.937013
 17
 -0.046680
  C 1.024203 -0.065196 0.007875
  C 2.513504 -0.133195 0.014742
  C 3.243363 -0.586869 -1.009922
  C 4.677217 -0.644618 -1.007731
  C 5.410661 -1.095838 -2.038790
  C 6.849919 -1.166328 -2.041102
  C 7.557113 -1.661006 -3.053050
  H 8.631225 -1.705782 -3.033475
  H 0.644712 0.370266 0.929643
  H 0.596764 -1.062300 -0.109879
  H 0.673346 0.536571 -0.831942
  H 3.013485 0.205835 0.911242
  H 2.747221 -0.944780 -1.902853
  H 5.173056 -0.294976 -0.111631
  H 4.915067 -1.458309 -2.929462
  H 7.362223 -0.791038 -1.160878
  H 7.077297 -2.033552 -3.944671
