 20
 0.000000
  H 1.503942 0.174284 0.484289
  C 2.584471 0.154960 0.436174
  C 3.320720 0.626602 1.609901
  C 2.437748 1.090446 2.763602
  C 3.271705 1.565660 3.948810
  C 3.149569 -0.315252 -0.733389
  C 4.528728 -0.404468 -0.955154
  C 5.108208 -0.870747 -2.117997
  H 4.561832 -1.219872 -2.986867
  O 6.385613 -0.942146 -2.299214
  H 3.992016 1.444135 1.317095
  H 3.991328 -0.166731 1.964244
  H 1.791377 0.272743 3.087867
  H 1.792441 1.906055 2.432008
  H 3.903665 0.765655 4.327530
  H 2.625030 1.891617 4.759446
  H 3.904828 2.404596 3.669578
  H 2.488928 -0.633809 -1.527238
  H 5.195950 -0.087188 -0.163674
  H 6.934322 -0.637854 -1.546380
 20
 0.703283
  H 1.561213 0.026963 0.528438
  C 2.626789 0.183118 0.423981
  C 3.335620 0.659302 1.612773
  C 2.424785 1.064493 2.767099
  C 3.230114 1.534650 3.973866
  C 3.201705 -0.157916 -0.779318
  C 4.585852 -0.239491 -0.996187
  C 5.094039 -0.933886 -2.076098
  H 4.427919 -1.403092 -2.792685
  O 6.338955 -1.171767 -2.312224
  H 3.994955 1.495191 1.349173
  H 4.016065 -0.127780 1.965983
  H 1.797085 0.220808 3.060282
  H 1.763171 1.870604 2.443466
  H 3.870649 0.739956 4.349575
  H 2.564830 1.836370 4.778719
  H 3.853356 2.388272 3.717946
  H 2.552428 -0.477916 -1.582037
  H 5.263631 0.187306 -0.269927
  H 6.972073 -0.743225 -1.697771
 20
 4.783006
  H 1.660097 -0.156615 0.553516
  C 2.680036 0.184052 0.412318
  C 3.368461 0.674024 1.609008
  C 2.429517 1.023466 2.766102
  C 3.205992 1.524338 3.977889
  C 3.214740 0.021926 -0.833379
  C 4.599242 -0.109517 -1.053308
  C 5.057111 -0.978911 -2.020508
  H 4.341920 -1.516154 -2.637971
  O 6.283261 -1.328260 -2.238485
  H 3.997487 1.539019 1.363138
  H 4.061417 -0.100271 1.968474
  H 1.843071 0.152103 3.047146
  H 1.735407 1.804646 2.439642
  H 3.874782 0.752726 4.356716
  H 2.522999 1.802740 4.776479
  H 3.799777 2.400647 3.727144
  H 2.555670 -0.259795 -1.644941
  H 5.292500 0.382597 -0.387889
  H 6.950826 -0.842055 -1.713919
 20
 12.925433
  H 1.823079 -0.290103 0.551846
  C 2.779320 0.201921 0.386384
  C 3.430911 0.710068 1.598097
  C 2.446830 0.966899 2.752321
  C 3.168672 1.508968 3.982329
  C 3.220188 0.218171 -0.887540
  C 4.602752 -0.014800 -1.104544
  C 4.983980 -1.037490 -1.936308
  H 4.222354 -1.621062 -2.449903
  O 6.191264 -1.479448 -2.141098
  H 3.983193 1.637970 1.379440
  H 4.168425 -0.015581 1.959154
  H 1.934322 0.045553 3.006236
  H 1.698737 1.698276 2.428509
  H 3.885556 0.784123 4.359463
  H 2.455961 1.728445 4.771379
  H 3.706036 2.428951 3.749975
  H 2.547193 -0.021702 -1.685919
  H 5.329342 0.539861 -0.531551
  H 6.884969 -0.963528 -1.700890
 20
 23.203381
  H 1.992350 -0.407210 0.579192
  C 2.889751 0.184605 0.392963
  C 3.507698 0.700841 1.613104
  C 2.465578 0.939265 2.718700
  C 3.126329 1.517795 3.963775
  C 3.212203 0.359485 -0.925086
  C 4.594115 0.025147 -1.101305
  C 4.907355 -1.078508 -1.856489
  H 4.130909 -1.693883 -2.289827
  O 6.108110 -1.541095 -2.090842
  H 4.056260 1.623450 1.399549
  H 4.226115 -0.024705 2.012007
  H 1.972643 0.000053 2.974322
  H 1.705100 1.634101 2.361997
  H 3.868081 0.832057 4.371972
  H 2.380100 1.702072 4.732694
  H 3.616947 2.461660 3.739390
  H 2.501792 0.150754 -1.711277
  H 5.358162 0.640515 -0.644848
  H 6.841505 -0.997157 -1.742955
 20
 36.675386
  H 2.169425 -0.503555 0.537310
  C 2.986977 0.192921 0.313674
  C 3.590314 0.730615 1.552037
  C 2.520349 0.882278 2.646681
  C 3.131269 1.483840 3.907160
  C 3.135026 0.525047 -1.007752
  C 4.515063 0.068747 -1.044080
  C 4.820640 -1.111167 -1.670942
  H 4.044862 -1.752178 -2.069061
  O 6.025678 -1.579472 -1.872900
  H 4.052863 1.699587 1.359387
  H 4.360606 0.054713 1.938566
  H 2.089308 -0.090712 2.885821
  H 1.719455 1.530115 2.290887
  H 3.914833 0.841535 4.305698
  H 2.369663 1.603125 4.672488
  H 3.558249 2.461299 3.703614
  H 2.423513 0.312304 -1.784003
  H 5.290694 0.697497 -0.628592
  H 6.748502 -1.016286 -1.536348
 20
 38.599746
  H 2.497900 -0.683858 0.461139
  C 3.167896 0.151079 0.244362
  C 3.690696 0.797360 1.500405
  C 2.609810 0.800188 2.585011
  C 3.113803 1.500650 3.840187
  C 3.095380 0.714612 -1.044705
  C 4.393208 0.035493 -0.861306
  C 4.676560 -1.173209 -1.516016
  H 3.868606 -1.791714 -1.896865
  O 5.842958 -1.657448 -1.744891
  H 3.991990 1.821343 1.293843
  H 4.551409 0.252802 1.883513
  H 2.329410 -0.223418 2.833837
  H 1.721490 1.314876 2.218637
  H 3.983322 0.990952 4.246587
  H 2.340228 1.509422 4.602517
  H 3.387660 2.532007 3.625676
  H 2.383224 0.625415 -1.838669
  H 5.228856 0.633679 -0.510333
  H 6.603914 -1.123224 -1.432621
 20
 39.100598
  H 2.615094 -0.685405 0.436258
  C 3.220537 0.190818 0.196971
  C 3.689138 0.915435 1.441587
  C 2.695293 0.719202 2.590147
  C 3.149617 1.479951 3.830191
  C 3.080752 0.750362 -1.091145
  C 4.381451 0.061710 -0.931836
  C 4.584110 -1.242480 -1.414066
  H 3.731806 -1.857143 -1.693126
  O 5.705816 -1.833253 -1.567328
  H 3.790919 1.982159 1.230631
  H 4.662338 0.536658 1.760336
  H 2.610069 -0.341958 2.832047
  H 1.709456 1.078603 2.289996
  H 4.114305 1.118162 4.175224
  H 2.431906 1.351389 4.635765
  H 3.235731 2.542996 3.622492
  H 2.365272 0.841890 -1.879097
  H 5.251684 0.676059 -0.718353
  H 6.513069 -1.311043 -1.365404
 20
 42.046334
  H 2.628218 -0.669924 0.376944
  C 3.216150 0.218130 0.139693
  C 3.673556 0.950576 1.382935
  C 2.745182 0.657522 2.563635
  C 3.193662 1.422189 3.803780
  C 3.043016 0.792062 -1.140973
  C 4.351431 0.126067 -1.039050
  C 4.531276 -1.244458 -1.276436
  H 3.683972 -1.870919 -1.545045
  O 5.633395 -1.886600 -1.216134
  H 3.689417 2.024208 1.190510
  H 4.684189 0.644609 1.657490
  H 2.746749 -0.411747 2.782138
  H 1.724915 0.950404 2.311396
  H 4.194351 1.121518 4.104825
  H 2.517932 1.227349 4.632514
  H 3.198245 2.493537 3.617459
  H 2.341338 1.057453 -1.893112
  H 5.228977 0.748113 -0.887119
  H 6.445788 -1.361843 -1.044003
 20
 46.879885
  H 2.569928 -0.648924 0.299363
  C 3.194943 0.214009 0.070230
  C 3.676659 0.928591 1.312533
  C 2.784572 0.609788 2.515571
  C 3.265260 1.354279 3.756093
  C 3.011994 0.833790 -1.202325
  C 4.317236 0.198614 -1.184201
  C 4.482585 -1.189438 -1.102313
  H 3.676070 -1.866720 -1.369106
  O 5.563852 -1.801850 -0.791174
  H 3.683028 2.005816 1.138050
  H 4.696234 0.626470 1.557540
  H 2.798317 -0.463201 2.714714
  H 1.755886 0.901620 2.298910
  H 4.274679 1.051472 4.024523
  H 2.613385 1.143291 4.599934
  H 3.261926 2.428715 3.588326
  H 2.296644 1.205530 -1.890253
  H 5.197512 0.831738 -1.092509
  H 6.359488 -1.248939 -0.639786
 20
 50.530523
  H 2.488388 -0.652270 0.234332
  C 3.187495 0.150593 0.002371
  C 3.703461 0.846974 1.237644
  C 2.809987 0.560827 2.449028
  C 3.331167 1.281986 3.687002
  C 3.032827 0.823260 -1.274330
  C 4.319226 0.235609 -1.374767
  C 4.434862 -1.104789 -0.954630
  H 3.678081 -1.841434 -1.196654
  O 5.511131 -1.646211 -0.470452
  H 3.752097 1.924009 1.068048
  H 4.711336 0.502396 1.476280
  H 2.783468 -0.511688 2.645161
  H 1.792226 0.894103 2.243187
  H 4.329717 0.937752 3.946146
  H 2.679183 1.095197 4.535573
  H 3.369703 2.355923 3.522110
  H 2.270492 1.244081 -1.881917
  H 5.213206 0.859405 -1.397826
  H 6.278583 -1.051757 -0.360226
 20
 46.922172
  H 2.443340 -0.655824 0.227525
  C 3.205771 0.090348 -0.012762
  C 3.725069 0.788780 1.218400
  C 2.816003 0.533814 2.426225
  C 3.346193 1.252800 3.661324
  C 3.092729 0.804870 -1.297652
  C 4.342931 0.259174 -1.545715
  C 4.403365 -1.006683 -0.859453
  H 3.678938 -1.778211 -1.089610
  O 5.492500 -1.508349 -0.312509
  H 3.800050 1.863493 1.042915
  H 4.722312 0.420808 1.469021
  H 2.763006 -0.536757 2.631443
  H 1.807806 0.889978 2.210678
  H 4.334140 0.887044 3.930506
  H 2.683642 1.088077 4.506877
  H 3.411425 2.324288 3.487842
  H 2.267856 1.221342 -1.829889
  H 5.241796 0.844506 -1.719249
  H 6.241295 -0.889624 -0.239932
 20
 38.604296
  H 2.403168 -0.635469 0.234597
  C 3.234802 0.034053 -0.005599
  C 3.742967 0.748289 1.227034
  C 2.817553 0.518364 2.428986
  C 3.347781 1.238961 3.662679
  C 3.151299 0.804674 -1.276011
  C 4.332285 0.244024 -1.671273
  C 4.382065 -0.939806 -0.783173
  H 3.733645 -1.767900 -1.064216
  O 5.499344 -1.405957 -0.225029
  H 3.834820 1.820014 1.041633
  H 4.729895 0.369872 1.497958
  H 2.743519 -0.549258 2.643819
  H 1.818250 0.889510 2.198192
  H 4.323138 0.854812 3.951226
  H 2.669359 1.096460 4.499885
  H 3.438963 2.306738 3.478598
  H 2.311131 1.270540 -1.746719
  H 5.222608 0.750537 -2.018873
  H 6.214902 -0.750799 -0.148202
 20
 33.320125
  H 2.382362 -0.610008 0.214368
  C 3.251730 0.014370 -0.012406
  C 3.728728 0.762651 1.212601
  C 2.821267 0.501821 2.423001
  C 3.348809 1.219488 3.658595
  C 3.187337 0.800903 -1.280137
  C 4.309314 0.202110 -1.741887
  C 4.376380 -0.930018 -0.760364
  H 3.803107 -1.801949 -1.083294
  O 5.519614 -1.359309 -0.212207
  H 3.778153 1.835137 1.014959
  H 4.731116 0.432695 1.489775
  H 2.767438 -0.569154 2.628525
  H 1.812981 0.854404 2.201688
  H 4.304346 0.808803 3.975551
  H 2.647463 1.105484 4.481536
  H 3.477249 2.281710 3.465336
  H 2.393240 1.376221 -1.709914
  H 5.160769 0.602628 -2.270544
  H 6.176311 -0.657435 -0.056135
 20
 30.022411
  H 2.414731 -0.606948 0.193947
  C 3.285570 0.020066 -0.017382
  C 3.741583 0.772051 1.208720
  C 2.819899 0.508553 2.409025
  C 3.341915 1.207700 3.656285
  C 3.219119 0.789814 -1.296330
  C 4.258823 0.115853 -1.816033
  C 4.400432 -0.940607 -0.754973
  H 3.870132 -1.865893 -0.995983
  O 5.588918 -1.273998 -0.235893
  H 3.787044 1.843604 1.003739
  H 4.742242 0.454776 1.507640
  H 2.749015 -0.563499 2.605056
  H 1.817678 0.871663 2.176023
  H 4.253583 0.740778 4.021402
  H 2.599677 1.148109 4.448977
  H 3.547341 2.256709 3.458026
  H 2.498297 1.486513 -1.672351
  H 5.014999 0.378482 -2.538984
  H 6.177446 -0.515523 -0.068498
