 25
 0.000000
  H 1.456883 0.170356 0.475190
  C 2.535804 0.149415 0.422752
  C 3.301351 0.615384 1.582176
  C 2.463543 1.090002 2.763638
  C 3.348092 1.553295 3.916643
  C 3.085958 -0.322290 -0.751599
  C 4.465779 -0.423462 -1.003983
  C 5.099036 -0.878390 -2.138154
  C 4.597378 -1.391491 -3.417299
  C 3.109046 -1.504500 -3.699554
  H 2.958933 -1.904592 -4.696932
  H 6.181448 -0.869895 -2.117094
  H 3.965827 1.429701 1.267343
  H 3.966009 -0.190244 1.918231
  H 1.820496 0.280418 3.113950
  H 1.820372 1.916854 2.456517
  H 3.983273 0.744589 4.270831
  H 2.736470 1.888229 4.750553
  H 3.983128 2.382356 3.612829
  H 2.396802 -0.630388 -1.518727
  H 5.114234 -0.100303 -0.199042
  H 5.061678 -2.378376 -3.552241
  H 5.062034 -0.771762 -4.196927
  H 2.627711 -0.529888 -3.653908
  H 2.627438 -2.177229 -2.993048
 25
 4.963142
  H 1.526553 0.176844 0.489596
  C 2.606307 0.160156 0.448256
  C 3.330642 0.630138 1.618784
  C 2.440394 1.091921 2.768381
  C 3.266732 1.569513 3.957958
  C 3.184253 -0.297525 -0.691406
  C 4.536508 -0.426257 -1.011926
  C 5.106170 -0.901463 -2.196234
  C 4.545369 -1.406492 -3.454523
  C 3.044593 -1.504100 -3.697421
  H 2.873890 -1.904633 -4.695318
  H 6.192606 -0.904875 -2.204885
  H 4.005803 1.447168 1.326969
  H 4.005609 -0.162081 1.972821
  H 1.795082 0.271096 3.087334
  H 1.795450 1.905614 2.430972
  H 3.899964 0.771409 4.338479
  H 2.615974 1.894101 4.765821
  H 3.900189 2.409011 3.680745
  H 2.693857 -0.646709 -1.561260
  H 5.255344 -0.120802 -0.250566
  H 5.002337 -2.396708 -3.612541
  H 5.002360 -0.800460 -4.253408
  H 2.565153 -0.528835 -3.651348
  H 2.565246 -2.176993 -2.989911
 25
 14.853465
  H 1.559003 0.161333 0.458874
  C 2.641454 0.158522 0.450248
  C 3.332006 0.637665 1.639401
  C 2.422169 1.088221 2.760478
  C 3.218705 1.574450 3.965133
  C 3.267307 -0.289743 -0.666037
  C 4.602962 -0.430961 -1.018024
  C 5.105986 -0.911591 -2.218444
  C 4.497201 -1.406278 -3.455308
  C 3.004629 -1.489888 -3.667073
  H 2.818422 -1.888430 -4.663796
  H 6.188406 -0.933115 -2.271474
  H 4.007325 1.451856 1.361196
  H 4.008917 -0.141214 2.002135
  H 1.777347 0.261204 3.066041
  H 1.775671 1.895047 2.407920
  H 3.851881 0.782613 4.359603
  H 2.548446 1.893477 4.758656
  H 3.849922 2.419687 3.699909
  H 2.954452 -0.661207 -1.591689
  H 5.370060 -0.147153 -0.309225
  H 4.937128 -2.392972 -3.627903
  H 4.938258 -0.811555 -4.260846
  H 2.529648 -0.510057 -3.616672
  H 2.528230 -2.164059 -2.955196
 25
 28.539378
  H 1.575260 0.145936 0.432377
  C 2.658218 0.154525 0.447633
  C 3.330865 0.646052 1.660660
  C 2.398980 1.093884 2.776150
  C 3.177706 1.588906 3.994765
  C 3.322442 -0.291723 -0.663990
  C 4.659189 -0.447823 -1.051692
  C 5.119077 -0.924686 -2.246416
  C 4.473374 -1.412752 -3.473204
  C 2.967930 -1.482397 -3.655347
  H 2.758898 -1.878190 -4.650185
  H 6.198462 -0.957557 -2.326204
  H 4.008329 1.466102 1.389058
  H 4.012886 -0.129524 2.032977
  H 1.754433 0.260552 3.074854
  H 1.749353 1.897385 2.413466
  H 3.811761 0.802325 4.398917
  H 2.494159 1.904063 4.779760
  H 3.806427 2.438776 3.737359
  H 3.164148 -0.677912 -1.627075
  H 5.464726 -0.178745 -0.376419
  H 4.900696 -2.406755 -3.657181
  H 4.903619 -0.818931 -4.289944
  H 2.500280 -0.498177 -3.593805
  H 2.496825 -2.153335 -2.934784
 25
 42.656735
  H 1.590081 0.100052 0.448084
  C 2.667437 0.131135 0.456245
  C 3.328268 0.648312 1.653567
  C 2.384173 1.084975 2.771910
  C 3.153515 1.609107 3.988331
  C 3.332182 -0.303513 -0.640555
  C 4.679589 -0.483958 -1.051818
  C 5.133829 -0.949760 -2.264868
  C 4.465984 -1.410896 -3.487532
  C 2.947466 -1.448651 -3.633450
  H 2.705325 -1.827159 -4.629680
  H 6.211081 -0.993187 -2.353776
  H 3.988783 1.482852 1.372623
  H 4.030860 -0.112619 2.026645
  H 1.757824 0.237755 3.078440
  H 1.713493 1.871629 2.404119
  H 3.806724 0.841021 4.397914
  H 2.463400 1.914205 4.772036
  H 3.761967 2.471768 3.723730
  H 3.306183 -0.686685 -1.617623
  H 5.503811 -0.242966 -0.384600
  H 4.873492 -2.411425 -3.693838
  H 4.891865 -0.809052 -4.303907
  H 2.499077 -0.457043 -3.546528
  H 2.479487 -2.120958 -2.910654
 25
 51.665696
  H 1.628805 -0.009934 0.473817
  C 2.712184 0.067647 0.447619
  C 3.362008 0.673900 1.657253
  C 2.374070 1.062501 2.743921
  C 3.098913 1.642706 3.949192
  C 3.357704 -0.343696 -0.614324
  C 4.698223 -0.584877 -1.098234
  C 5.174602 -1.000555 -2.288316
  C 4.462009 -1.410123 -3.527384
  C 2.942522 -1.357308 -3.540813
  H 2.595429 -1.682777 -4.515834
  H 6.250287 -1.061653 -2.384819
  H 3.960770 1.547141 1.375606
  H 4.083965 -0.058775 2.040235
  H 1.801953 0.191029 3.055953
  H 1.672267 1.803105 2.365853
  H 3.789864 0.919527 4.370964
  H 2.386310 1.917214 4.720137
  H 3.657843 2.532052 3.675263
  H 3.396245 -0.735161 -1.640495
  H 5.507394 -0.382088 -0.380675
  H 4.804875 -2.418924 -3.788640
  H 4.863705 -0.785217 -4.336237
  H 2.561600 -0.350517 -3.390723
  H 2.500955 -2.036194 -2.813306
 25
 57.117711
  H 1.643642 -0.048481 0.533299
  C 2.725531 0.041279 0.473669
  C 3.374638 0.685002 1.680356
  C 2.365415 1.060274 2.770256
  C 3.074199 1.688338 3.973106
  C 3.357635 -0.367957 -0.588522
  C 4.685523 -0.647370 -1.146959
  C 5.187099 -1.040199 -2.338015
  C 4.473128 -1.415038 -3.579971
  C 2.954657 -1.324961 -3.558302
  H 2.571011 -1.626771 -4.534148
  H 6.263322 -1.110174 -2.420898
  H 3.928221 1.572441 1.365940
  H 4.107939 -0.023740 2.083748
  H 1.823452 0.168842 3.098098
  H 1.636874 1.772983 2.372487
  H 3.792864 0.992888 4.407526
  H 2.350692 1.953090 4.744567
  H 3.604977 2.594750 3.681284
  H 3.436570 -0.760923 -1.621259
  H 5.462191 -0.473432 -0.392708
  H 4.785942 -2.427061 -3.848031
  H 4.870047 -0.776443 -4.376196
  H 2.604245 -0.303656 -3.394034
  H 2.510913 -2.012228 -2.835651
 25
 62.221614
  H 1.656380 -0.103468 0.588195
  C 2.729491 0.010446 0.512313
  C 3.370174 0.689151 1.691486
  C 2.366133 1.053195 2.769780
  C 3.061837 1.720297 3.942042
  C 3.353881 -0.402159 -0.550046
  C 4.689158 -0.704468 -1.147718
  C 5.190607 -1.063982 -2.335479
  C 4.468876 -1.397034 -3.600699
  C 2.945344 -1.281489 -3.570462
  H 2.552108 -1.548955 -4.547992
  H 6.266225 -1.144285 -2.410446
  H 3.889664 1.585624 1.352300
  H 4.124379 0.012344 2.101800
  H 1.856917 0.159452 3.120005
  H 1.618571 1.732457 2.368641
  H 3.798825 1.059782 4.380141
  H 2.343099 1.977727 4.708486
  H 3.559830 2.628680 3.628759
  H 3.488301 -0.804611 -1.581320
  H 5.444493 -0.565656 -0.362449
  H 4.765171 -2.412600 -3.892804
  H 4.875278 -0.739496 -4.381031
  H 2.617789 -0.261545 -3.370786
  H 2.495821 -1.975224 -2.859357
 25
 66.583285
  H 1.646335 -0.170575 0.627620
  C 2.717651 -0.031456 0.534359
  C 3.363176 0.691688 1.693271
  C 2.361673 1.055949 2.786414
  C 3.060346 1.769507 3.939018
  C 3.328206 -0.453381 -0.527949
  C 4.671949 -0.766470 -1.146483
  C 5.183180 -1.091889 -2.347233
  C 4.469625 -1.373729 -3.622056
  C 2.959566 -1.241563 -3.593214
  H 2.567405 -1.469815 -4.576446
  H 6.257594 -1.179784 -2.413747
  H 3.855131 1.600412 1.321697
  H 4.143264 0.041206 2.109658
  H 1.880106 0.154372 3.166331
  H 1.588840 1.708386 2.380089
  H 3.822976 1.135757 4.381257
  H 2.344635 2.026402 4.713912
  H 3.531896 2.686398 3.598087
  H 3.516938 -0.873188 -1.555567
  H 5.410404 -0.662908 -0.336377
  H 4.751539 -2.379888 -3.943672
  H 4.881316 -0.699072 -4.375796
  H 2.649000 -0.231042 -3.356637
  H 2.503191 -1.947810 -2.906173
 25
 69.957904
  H 1.628491 -0.239858 0.686869
  C 2.695626 -0.078277 0.564080
  C 3.352600 0.689465 1.687770
  C 2.368336 1.057996 2.793202
  C 3.072758 1.814272 3.906723
  C 3.289922 -0.513050 -0.501405
  C 4.640652 -0.826644 -1.124393
  C 5.173677 -1.111165 -2.329237
  C 4.481870 -1.339019 -3.624869
  C 2.966483 -1.194489 -3.617609
  H 2.586498 -1.382914 -4.622011
  H 6.243315 -1.202805 -2.377227
  H 3.810305 1.596317 1.284045
  H 4.157777 0.068287 2.100298
  H 1.919310 0.159339 3.204074
  H 1.573940 1.678914 2.390891
  H 3.857785 1.212023 4.345274
  H 2.370458 2.073327 4.689228
  H 3.512555 2.729306 3.533214
  H 3.531432 -0.950596 -1.522496
  H 5.360448 -0.760645 -0.295586
  H 4.761108 -2.334830 -3.978748
  H 4.913507 -0.639533 -4.347657
  H 2.657623 -0.178527 -3.340851
  H 2.488968 -1.927059 -2.958105
 25
 72.464767
  H 1.622767 -0.322370 0.751101
  C 2.669744 -0.140137 0.597009
  C 3.335360 0.684223 1.677128
  C 2.372936 1.058283 2.797894
  C 3.088248 1.874570 3.871086
  C 3.248999 -0.587099 -0.474060
  C 4.610220 -0.904031 -1.103185
  C 5.166179 -1.140662 -2.313373
  C 4.491717 -1.297019 -3.626880
  C 2.979692 -1.125925 -3.630953
  H 2.609122 -1.260144 -4.638850
  H 6.246216 -1.246136 -2.344829
  H 3.752769 1.589629 1.231690
  H 4.167584 0.104380 2.084259
  H 1.959707 0.150731 3.253346
  H 1.541207 1.647004 2.394566
  H 3.905268 1.309664 4.306861
  H 2.400247 2.138022 4.665781
  H 3.490273 2.792410 3.455351
  H 3.537422 -1.041474 -1.502747
  H 5.307193 -0.888892 -0.261946
  H 4.759479 -2.282899 -4.024679
  H 4.946130 -0.572392 -4.312380
  H 2.690810 -0.131745 -3.312099
  H 2.486055 -1.870252 -3.014232
 25
 74.372473
  H 1.616480 -0.393736 0.803375
  C 2.656577 -0.190772 0.619545
  C 3.328389 0.682676 1.661648
  C 2.380835 1.066811 2.795458
  C 3.097208 1.929894 3.825342
  C 3.224781 -0.655392 -0.448256
  C 4.581657 -0.980976 -1.080733
  C 5.158880 -1.169818 -2.297018
  C 4.502367 -1.250668 -3.622078
  C 2.993379 -1.055960 -3.634887
  H 2.629503 -1.131105 -4.659766
  H 6.229827 -1.286966 -2.313825
  H 3.713689 1.584267 1.180148
  H 4.185635 0.134982 2.066150
  H 2.001968 0.165050 3.285330
  H 1.527320 1.621527 2.395509
  H 3.935546 1.400105 4.257121
  H 2.422205 2.199208 4.626055
  H 3.465088 2.841608 3.375184
  H 3.545958 -1.135136 -1.479843
  H 5.260400 -1.030579 -0.221058
  H 4.760256 -2.215572 -4.064873
  H 4.974798 -0.502691 -4.263963
  H 2.714277 -0.066044 -3.260483
  H 2.478334 -1.829030 -3.058856
 25
 75.376630
  H 1.625314 -0.459513 0.852634
  C 2.663736 -0.238024 0.650351
  C 3.325011 0.683432 1.652135
  C 2.382412 1.079235 2.782607
  C 3.088357 1.994359 3.776002
  C 3.234948 -0.720637 -0.407620
  C 4.579880 -1.080061 -1.067082
  C 5.159861 -1.215213 -2.292935
  C 4.502490 -1.202646 -3.620623
  C 2.999303 -0.964284 -3.620651
  H 2.634631 -0.966070 -4.642128
  H 6.234682 -1.359383 -2.311826
  H 3.682012 1.579654 1.135605
  H 4.201871 0.170957 2.063629
  H 2.034127 0.188249 3.303536
  H 1.513840 1.595508 2.376909
  H 3.950817 1.496675 4.216881
  H 2.410315 2.274100 4.581775
  H 3.429688 2.906583 3.288125
  H 3.564744 -1.241677 -1.465641
  H 5.244435 -1.199732 -0.207651
  H 4.734110 -2.148579 -4.120545
  H 4.997406 -0.431982 -4.221299
  H 2.750856 0.002639 -3.187210
  H 2.462122 -1.753621 -3.091969
 25
 75.838382
  H 1.658504 -0.512821 0.874954
  C 2.697195 -0.272363 0.668945
  C 3.332283 0.697951 1.643599
  C 2.377316 1.100694 2.763705
  C 3.058997 2.057910 3.733480
  C 3.289069 -0.772178 -0.369035
  C 4.598321 -1.179479 -1.064283
  C 5.164033 -1.273098 -2.309953
  C 4.491337 -1.166466 -3.622412
  C 3.002600 -0.853792 -3.585886
  H 2.620538 -0.789610 -4.601744
  H 6.225606 -1.462447 -2.345842
  H 3.663089 1.582631 1.101764
  H 4.220625 0.226007 2.066827
  H 2.049232 0.212600 3.309547
  H 1.493526 1.586180 2.342142
  H 3.928340 1.594294 4.185131
  H 2.377235 2.340228 4.528077
  H 3.378625 2.961816 3.224827
  H 3.601836 -1.346935 -1.456641
  H 5.262882 -1.359250 -0.213321
  H 4.668778 -2.098122 -4.169719
  H 5.017468 -0.393223 -4.197685
  H 2.810648 0.100860 -3.102131
  H 2.437439 -1.635256 -3.084557
