 26
 0.000000
  C 1.015055 0.111898 0.330358
  C 2.489352 0.126253 0.367562
  C 3.243284 0.602362 1.551537
  C 2.438182 1.086768 2.754371
  C 3.372477 1.536596 3.873875
  C 3.153435 -0.328972 -0.764272
  C 4.532086 -0.392479 -0.923555
  C 5.183523 -0.850292 -2.067842
  C 4.517398 -1.341175 -3.293027
  H 3.437959 -1.314119 -3.224776
  O 6.493783 -0.873028 -2.127450
  H 0.560825 0.478814 1.241938
  H 0.659556 -0.902036 0.140271
  H 0.660329 0.712223 -0.508912
  H 3.904692 1.415888 1.233000
  H 3.903979 -0.205562 1.885420
  H 1.801194 0.284901 3.131664
  H 1.802287 1.927094 2.470959
  H 4.007597 0.717524 4.203886
  H 2.798796 1.881572 4.730534
  H 4.008606 2.355306 3.544934
  H 2.534031 -0.658201 -1.583828
  H 5.165316 -0.066219 -0.110217
  H 4.851443 -2.358955 -3.498422
  H 4.851058 -0.746474 -4.144343
  H 6.936883 -0.550185 -1.322004
 26
 2.586492
  C 0.990693 0.230580 0.303106
  C 2.464976 0.223329 0.339168
  C 3.224949 0.626081 1.545418
  C 2.428855 1.044192 2.778127
  C 3.368648 1.413548 3.922020
  C 3.124851 -0.180245 -0.816586
  C 4.506375 -0.264347 -0.974721
  C 5.172759 -0.821013 -2.062580
  C 4.542272 -1.560139 -3.174535
  H 3.464335 -1.601102 -3.092195
  O 6.485474 -0.800024 -2.108589
  H 0.541308 0.544159 1.236644
  H 0.621777 -0.764350 0.049022
  H 0.643389 0.885840 -0.497419
  H 3.887387 1.454378 1.268265
  H 3.890842 -0.197114 1.827079
  H 1.782806 0.228013 3.106009
  H 1.799926 1.906182 2.549266
  H 3.994612 0.568622 4.200178
  H 2.799612 1.713821 4.798262
  H 4.014604 2.242919 3.642321
  H 2.505001 -0.427346 -1.666429
  H 5.172031 0.100694 -0.208011
  H 4.940431 -2.574135 -3.205712
  H 4.828079 -1.093502 -4.116724
  H 6.972617 -0.080620 -1.670168
 26
 9.252218
  C 0.980373 0.330365 0.275680
  C 2.442494 0.290644 0.322827
  C 3.200480 0.614392 1.557225
  C 2.407604 1.013951 2.801364
  C 3.358375 1.307564 3.954105
  C 3.109711 -0.095225 -0.832536
  C 4.497742 -0.182156 -0.998836
  C 5.178302 -0.795256 -2.055739
  C 4.601879 -1.744512 -3.050430
  H 3.529368 -1.850279 -2.956559
  O 6.475783 -0.657806 -2.101214
  H 0.530387 0.614941 1.219001
  H 0.604094 -0.625616 -0.044982
  H 0.645700 1.056118 -0.482566
  H 3.897064 1.431096 1.314955
  H 3.826689 -0.244725 1.806203
  H 1.729882 0.202513 3.087154
  H 1.818571 1.909439 2.610997
  H 3.965388 0.429904 4.190114
  H 2.799802 1.572392 4.849706
  H 4.025244 2.126755 3.715410
  H 2.498222 -0.302847 -1.703134
  H 5.184484 0.246373 -0.288544
  H 5.075146 -2.717351 -2.936960
  H 4.851400 -1.397351 -4.064734
  H 6.854501 0.237265 -2.182569
 26
 14.085436
  C 0.958060 0.387588 0.249146
  C 2.428471 0.363891 0.276969
  C 3.200582 0.627642 1.511264
  C 2.419125 0.944376 2.781765
  C 3.375312 1.182884 3.948128
  C 3.085865 0.071187 -0.911697
  C 4.472276 -0.018784 -1.066934
  C 5.170789 -0.732572 -2.020848
  C 4.634369 -1.826101 -2.848785
  H 3.560616 -1.929770 -2.735313
  O 6.505079 -0.554403 -2.020549
  H 0.516231 0.589424 1.216182
  H 0.574520 -0.564652 -0.121033
  H 0.619650 1.138165 -0.462383
  H 3.888558 1.457756 1.305628
  H 3.844750 -0.232167 1.710565
  H 1.758981 0.111517 3.033950
  H 1.812346 1.841255 2.639401
  H 3.973103 0.293513 4.151506
  H 2.819265 1.429383 4.850813
  H 4.050636 2.007104 3.735238
  H 2.477670 -0.087839 -1.789994
  H 5.181723 0.519515 -0.438990
  H 5.123092 -2.763206 -2.564637
  H 4.884807 -1.659659 -3.897213
  H 6.858672 0.136920 -2.594955
 26
 21.615618
  C 0.909308 0.462061 0.245503
  C 2.383586 0.423689 0.243814
  C 3.187004 0.624839 1.470470
  C 2.455879 0.853756 2.783318
  C 3.426133 1.083937 3.933271
  C 3.017860 0.163552 -0.958018
  C 4.399435 0.066101 -1.128352
  C 5.133115 -0.681005 -2.031815
  C 4.723766 -1.914162 -2.710096
  H 3.658726 -2.070390 -2.626428
  O 6.448295 -0.384572 -1.968122
  H 0.486209 0.637487 1.227240
  H 0.510669 -0.481699 -0.144356
  H 0.559494 1.230677 -0.442855
  H 3.871822 1.472863 1.289723
  H 3.869292 -0.220576 1.592314
  H 1.817002 -0.008362 3.020462
  H 1.770467 1.705967 2.707855
  H 4.066360 0.218594 4.086895
  H 2.883545 1.284198 4.854042
  H 4.058682 1.941202 3.735369
  H 2.404269 0.078568 -1.841495
  H 5.178175 0.700967 -0.683426
  H 5.262227 -2.756634 -2.279496
  H 4.998728 -1.879804 -3.756065
  H 6.809246 0.099408 -2.725640
 26
 42.467029
  C 0.803983 0.598892 0.296541
  C 2.278212 0.510099 0.218735
  C 3.155467 0.658125 1.407387
  C 2.463143 0.839352 2.757439
  C 3.527491 0.895685 3.856349
  C 2.845024 0.202524 -1.009177
  C 4.213854 0.095963 -1.237424
  C 5.060347 -0.679481 -1.989872
  C 4.958620 -2.046229 -2.537688
  H 3.961582 -2.447261 -2.378302
  O 6.295091 -0.078463 -1.930520
  H 0.445080 0.815823 1.299019
  H 0.349883 -0.336569 -0.044155
  H 0.446621 1.375019 -0.381247
  H 3.824085 1.509428 1.225708
  H 3.773691 -0.244885 1.457179
  H 1.827736 -0.020963 2.960287
  H 1.910557 1.780864 2.773708
  H 4.127938 -0.010381 3.853943
  H 3.057875 0.962697 4.834877
  H 4.187595 1.750499 3.726380
  H 2.188489 0.114971 -1.866502
  H 5.119040 0.780446 -1.014110
  H 5.688182 -2.696051 -2.054443
  H 5.173048 -2.044319 -3.608181
  H 6.608296 0.358165 -2.739059
 26
 67.778521
  C 0.739331 0.602169 0.349944
  C 2.207457 0.452273 0.220925
  C 3.133666 0.596682 1.378911
  C 2.507153 0.810049 2.754472
  C 3.591993 0.932415 3.820429
  C 2.723600 0.168183 -1.028275
  C 4.058140 -0.025290 -1.305172
  C 4.964642 -0.707515 -1.975031
  C 5.036994 -2.041990 -2.598731
  H 4.056223 -2.505912 -2.598502
  O 6.213480 0.010370 -1.777203
  H 0.422352 0.785200 1.369648
  H 0.234096 -0.290502 -0.019548
  H 0.397289 1.428435 -0.274890
  H 3.806290 1.436243 1.180984
  H 3.760016 -0.299534 1.422800
  H 1.859378 -0.031508 3.007812
  H 1.905718 1.720499 2.761850
  H 4.197592 0.029892 3.862601
  H 3.145180 1.082715 4.800325
  H 4.244601 1.777854 3.615211
  H 2.039353 0.175987 -1.872049
  H 5.420881 0.643011 -1.016233
  H 5.735579 -2.675578 -2.054915
  H 5.386915 -1.959251 -3.627002
  H 6.536333 0.514615 -2.554945
 26
 58.946120
  C 0.703620 0.670481 0.360481
  C 2.175190 0.522444 0.188793
  C 3.133232 0.624355 1.332742
  C 2.531006 0.799624 2.719787
  C 3.616278 0.797876 3.786804
  C 2.654075 0.214289 -1.063662
  C 3.968999 0.018002 -1.377556
  C 4.909656 -0.664842 -1.965290
  C 5.086556 -2.068681 -2.395652
  H 4.144777 -2.597154 -2.313898
  O 6.199694 0.132639 -1.868357
  H 0.420656 0.834982 1.391454
  H 0.192157 -0.226794 0.011043
  H 0.335428 1.500034 -0.241001
  H 3.829294 1.445620 1.145650
  H 3.722463 -0.299731 1.343348
  H 1.875361 -0.054047 2.922704
  H 1.920452 1.700486 2.793157
  H 4.192231 -0.122376 3.745279
  H 3.177104 0.877909 4.777877
  H 4.300214 1.633369 3.646962
  H 1.945282 0.199581 -1.882781
  H 5.674415 0.799587 -1.296139
  H 5.822352 -2.562446 -1.770685
  H 5.429024 -2.111570 -3.427231
  H 6.519682 0.522814 -2.709940
 26
 52.088292
  C 0.689105 0.661000 0.363560
  C 2.152690 0.439532 0.217178
  C 3.103136 0.551520 1.365084
  C 2.502396 0.757300 2.754141
  C 3.604906 0.869905 3.802799
  C 2.648114 0.181414 -1.041222
  C 3.956497 -0.048673 -1.349010
  C 4.924668 -0.690467 -1.925847
  C 5.095876 -2.051661 -2.481140
  H 4.149108 -2.577968 -2.465402
  O 6.217239 0.099670 -1.880280
  H 0.389923 0.821500 1.389465
  H 0.135820 -0.190528 -0.034191
  H 0.382718 1.527197 -0.228305
  H 3.785634 1.389393 1.164172
  H 3.731699 -0.348781 1.382756
  H 1.844333 -0.074949 3.014340
  H 1.915317 1.679248 2.774327
  H 4.200359 -0.039437 3.839727
  H 3.175275 1.033573 4.788342
  H 4.263759 1.707590 3.581903
  H 1.954811 0.237873 -1.876431
  H 5.855244 0.746568 -1.218146
  H 5.829369 -2.608440 -1.903767
  H 5.447203 -1.993953 -3.508917
  H 6.443646 0.528132 -2.736958
 26
 49.174420
  C 0.630420 0.741766 0.364800
  C 2.087580 0.488642 0.177673
  C 3.081945 0.516364 1.316096
  C 2.531752 0.757753 2.727817
  C 3.665873 0.750167 3.755555
  C 2.532863 0.201353 -1.092568
  C 3.807823 -0.072882 -1.441630
  C 4.836480 -0.660392 -1.941348
  C 5.190365 -2.049921 -2.321071
  H 4.317402 -2.688094 -2.227008
  O 6.124558 0.179272 -1.966733
  H 0.370261 0.936547 1.394588
  H 0.050481 -0.114086 0.016669
  H 0.316119 1.595833 -0.239896
  H 3.817441 1.296965 1.105637
  H 3.628760 -0.430537 1.313728
  H 1.816900 -0.026962 2.990261
  H 2.020248 1.720756 2.776400
  H 4.182441 -0.205416 3.752387
  H 3.275079 0.918541 4.755639
  H 4.391701 1.536409 3.538228
  H 1.816192 0.255312 -1.904493
  H 5.972573 0.826817 -1.240543
  H 5.983268 -2.427097 -1.677330
  H 5.533116 -2.079049 -3.351512
  H 6.417201 0.638502 -2.793166
