 26
 0.000000
  C 0.991686 0.134707 0.386157
  C 2.468692 0.139420 0.397467
  C 3.239964 0.611110 1.571472
  C 2.448292 1.096632 2.780492
  H 3.118177 1.413305 3.568676
  C 3.087397 -0.324568 -0.757761
  C 4.463295 -0.411445 -0.974400
  C 5.128588 -0.865674 -2.106734
  C 4.617929 -1.386433 -3.404660
  C 3.126473 -1.499666 -3.687561
  H 2.970509 -1.898344 -4.681232
  O 6.450977 -0.867623 -2.111874
  H 0.548865 0.503314 1.304033
  H 0.625692 -0.878374 0.215237
  H 0.625370 0.748026 -0.437955
  H 3.896909 1.424645 1.243560
  H 3.897169 -0.202998 1.897379
  H 1.813197 0.301261 3.166750
  H 1.813003 1.938062 2.509328
  H 2.428117 -0.641619 -1.547100
  H 5.090272 -0.082136 -0.154055
  H 5.071336 -2.375800 -3.532976
  H 5.071676 -0.760401 -4.181298
  H 2.651009 -0.522498 -3.638230
  H 2.650632 -2.171516 -2.976539
  H 6.841934 -0.535069 -1.282206
 26
 16.314511
  C 1.048513 0.111274 0.329390
  C 2.558983 0.094079 0.286316
  C 3.302916 0.572875 1.475464
  C 2.484936 1.055228 2.674598
  H 3.165117 1.370602 3.458260
  C 3.101185 -0.357010 -0.833908
  C 4.458829 -0.357353 -0.834615
  C 5.024761 -0.803618 -1.950360
  C 4.521277 -1.324860 -3.252346
  C 3.044675 -1.475921 -3.630713
  H 3.008184 -1.879165 -4.638761
  O 6.364752 -0.834587 -2.029330
  H 0.632315 0.483506 1.254426
  H 0.674463 -0.901950 0.152724
  H 0.674197 0.719647 -0.499821
  H 3.955633 1.398931 1.169813
  H 3.956071 -0.234267 1.827091
  H 1.859538 0.262929 3.080986
  H 1.859310 1.908111 2.419133
  H 2.506557 -0.682561 -1.643602
  H 5.049838 -0.031999 -0.022992
  H 5.006067 -2.302417 -3.362805
  H 5.006464 -0.693724 -4.006783
  H 2.524427 -0.521055 -3.652553
  H 2.524004 -2.182177 -2.988118
  H 6.828647 -0.508786 -1.217008
 26
 71.136996
  C 1.136185 0.061646 0.229837
  C 2.695866 0.050052 0.209042
  C 3.353572 0.563496 1.447354
  C 2.477518 1.043671 2.597681
  H 3.123565 1.377298 3.403951
  C 3.199158 -0.407316 -0.866855
  C 4.535935 -0.319472 -0.657132
  C 4.927392 -0.752047 -1.805049
  C 4.385568 -1.264766 -3.130894
  C 2.941425 -1.446167 -3.589276
  H 2.989073 -1.835358 -4.605463
  O 6.281421 -0.831851 -2.035877
  H 0.685431 0.438201 1.141018
  H 0.789450 -0.954336 0.051967
  H 0.791259 0.657967 -0.612646
  H 4.000927 1.405212 1.180415
  H 3.996891 -0.222909 1.855627
  H 1.850097 0.249273 2.989530
  H 1.854436 1.884681 2.308660
  H 2.654626 -0.750943 -1.700929
  H 5.119215 0.006945 0.162954
  H 4.883375 -2.229599 -3.243149
  H 4.877290 -0.620366 -3.861804
  H 2.391195 -0.510662 -3.642689
  H 2.397177 -2.181701 -3.003128
  H 6.828993 -0.535358 -1.285161
 26
 152.558070
  C 1.177927 -0.006939 0.184071
  C 2.874373 -0.054973 0.175856
  C 3.420254 0.563662 1.447606
  C 2.456171 1.082464 2.514174
  H 3.059446 1.481378 3.330468
  C 3.197289 -0.640709 -0.867260
  C 4.595635 -0.310162 -0.537020
  C 4.799716 -0.721385 -1.719875
  C 4.321227 -1.207236 -3.098444
  C 2.895080 -1.362930 -3.613050
  H 2.981178 -1.707669 -4.642168
  O 6.213057 -0.841243 -2.011781
  H 0.817435 0.420039 1.114010
  H 0.853623 -1.029120 0.078514
  H 0.846995 0.584349 -0.655198
  H 4.036505 1.425766 1.169407
  H 4.052820 -0.188912 1.933590
  H 1.831683 0.293248 2.933812
  H 1.833436 1.896161 2.145580
  H 2.610088 -1.038029 -1.652666
  H 5.200750 0.051839 0.247213
  H 4.827607 -2.159076 -3.200907
  H 4.834523 -0.529146 -3.772275
  H 2.353993 -0.424955 -3.647501
  H 2.313155 -2.119235 -3.102706
  H 6.791139 -0.595219 -1.269041
 26
 141.235378
  C 0.679305 -0.320637 0.160650
  C 3.434199 -0.330275 0.227406
  C 3.640925 0.695919 1.257275
  C 2.476341 1.295365 2.044467
  H 2.883498 2.035837 2.723651
  C 3.196439 -1.314589 -0.546170
  C 4.758114 -0.842252 -0.368364
  C 5.027140 -0.870461 -1.676292
  C 4.358251 -0.931134 -3.031878
  C 2.860315 -0.820772 -3.306953
  H 2.745079 -0.799301 -4.393311
  O 6.338326 -0.984917 -2.005005
  H 0.235440 0.281872 0.926772
  H 0.558446 -1.377538 0.296286
  H 0.607680 0.062934 -0.837780
  H 4.198646 1.525973 0.805216
  H 4.282575 0.225662 2.012846
  H 1.951270 0.535371 2.620504
  H 1.770249 1.802186 1.394460
  H 2.484784 -1.831699 -1.134928
  H 5.512039 -0.695265 0.391443
  H 4.731579 -1.854879 -3.475839
  H 4.826150 -0.094660 -3.552757
  H 2.428565 0.085132 -2.888356
  H 2.291384 -1.683467 -2.978690
  H 6.949713 -0.912964 -1.251764
 26
 100.454021
  C 0.401578 -0.551315 0.144632
  C 3.549064 -0.322772 0.227974
  C 3.743430 0.826699 1.063128
  C 2.481780 1.355264 1.724548
  H 2.734218 2.226496 2.315092
  C 3.214087 -1.457911 -0.273467
  C 4.703459 -1.112656 -0.441115
  C 5.171186 -0.938670 -1.750392
  C 4.412160 -0.748491 -3.003526
  C 2.923750 -0.482429 -2.985419
  H 2.615691 -0.233462 -4.001360
  O 6.424703 -1.077476 -2.009703
  H -0.065201 0.154575 0.798463
  H 0.389621 -1.569927 0.442428
  H 0.436225 -0.317671 -0.898344
  H 4.205186 1.621084 0.474045
  H 4.461778 0.546512 1.847729
  H 2.039816 0.601926 2.383614
  H 1.750891 1.646556 0.983820
  H 2.483017 -2.089485 -0.694209
  H 5.454647 -1.331252 0.323106
  H 4.624192 -1.609288 -3.636675
  H 4.900589 0.097412 -3.493295
  H 2.678668 0.363942 -2.345403
  H 2.350949 -1.341450 -2.673565
  H 7.014378 -1.172771 -1.238569
