 21
 0.000000
  C 0.827509 0.046137 0.318109
  C 2.316352 0.058066 0.106649
  C 3.229746 -0.010528 1.322356
  C 2.574555 -0.088064 2.696377
  H 3.343922 -0.131263 3.462034
  C 2.905325 0.125229 -1.083593
  C 2.380390 0.204647 -2.491080
  C 0.880089 0.219657 -2.757060
  H 0.710273 0.280157 -3.829254
  H 3.990378 0.125502 -1.088386
  H 0.552490 -0.013042 1.366833
  H 0.377987 -0.812547 -0.175099
  H 0.377988 0.954856 -0.075367
  H 3.878185 0.870925 1.308554
  H 3.878199 -0.884845 1.209486
  H 1.955883 -0.978940 2.787343
  H 1.955886 0.786910 2.886978
  H 2.810627 -0.642346 -3.038917
  H 2.810620 1.107886 -2.940151
  H 0.404453 1.078741 -2.293320
  H 0.404461 -0.686137 -2.392910
 21
 3.532204
  C 0.798575 0.047343 0.296729
  C 2.269005 0.058328 0.102019
  C 3.195492 -0.009940 1.311912
  C 2.571545 -0.088245 2.699566
  H 3.366817 -0.130079 3.440955
  C 2.886169 0.124900 -1.077742
  C 2.393106 0.204791 -2.493573
  C 0.895030 0.220104 -2.764947
  H 0.729880 0.280741 -3.839589
  H 3.973080 0.123897 -1.059934
  H 0.773219 -0.012510 1.357394
  H 0.313624 -0.813297 -0.152637
  H 0.313627 0.953075 -0.052961
  H 3.842839 0.870471 1.284729
  H 3.842847 -0.881708 1.185859
  H 1.962789 -0.983244 2.816134
  H 1.962787 0.787951 2.916080
  H 2.833143 -0.641861 -3.032789
  H 2.833135 1.106715 -2.934119
  H 0.419219 1.079610 -2.304431
  H 0.419208 -0.685763 -2.404040
 21
 12.711657
  C 0.773786 0.048847 0.270005
  C 2.247756 0.059121 0.087957
  C 3.173280 -0.009503 1.304215
  C 2.558815 -0.088656 2.706905
  H 3.367628 -0.129814 3.436430
  C 2.889819 0.125118 -1.081618
  C 2.404283 0.204959 -2.496603
  C 0.904434 0.219620 -2.756380
  H 0.728901 0.280109 -3.828343
  H 3.975143 0.123503 -1.052988
  H 0.955986 -0.009521 1.304377
  H 0.276017 -0.818399 -0.136682
  H 0.276015 0.956338 -0.036537
  H 3.823833 0.873506 1.273927
  H 3.823847 -0.883502 1.174790
  H 1.954774 -0.986304 2.838706
  H 1.954783 0.788442 2.938843
  H 2.844303 -0.643732 -3.036247
  H 2.844282 1.108930 -2.937325
  H 0.432227 1.082180 -2.288670
  H 0.432243 -0.690050 -2.388688
 21
 25.913842
  C 0.741234 0.049967 0.250066
  C 2.231956 0.059595 0.079524
  C 3.165686 -0.009230 1.299386
  C 2.557551 -0.088916 2.711640
  H 3.372208 -0.129722 3.434963
  C 2.891705 0.125287 -1.084619
  C 2.415787 0.204570 -2.489700
  C 0.914643 0.219030 -2.745961
  H 0.737663 0.279266 -3.813376
  H 3.973069 0.123396 -1.051050
  H 1.089420 -0.005474 1.232584
  H 0.238075 -0.819787 -0.125778
  H 0.238064 0.956487 -0.025551
  H 3.818443 0.878327 1.265790
  H 3.818496 -0.887417 1.166148
  H 1.952325 -0.989755 2.850792
  H 1.952319 0.790541 2.951248
  H 2.856152 -0.644317 -3.026723
  H 2.856101 1.108405 -2.927760
  H 0.440658 1.087836 -2.273031
  H 0.440726 -0.697385 -2.373824
 21
 38.999872
  C 0.720624 0.049409 0.260247
  C 2.227694 0.058462 0.099740
  C 3.169408 -0.009945 1.311951
  C 2.563687 -0.089164 2.715898
  H 3.375148 -0.130054 3.440558
  C 2.885370 0.124111 -1.063678
  C 2.412195 0.204777 -2.493366
  C 0.911167 0.220447 -2.771290
  H 0.748142 0.280956 -3.843539
  H 3.971869 0.122011 -1.026353
  H 1.204858 -0.003580 1.199219
  H 0.220222 -0.831378 -0.100135
  H 0.220228 0.965151 0.001247
  H 3.818971 0.874461 1.276383
  H 3.819009 -0.884773 1.177102
  H 1.958917 -0.987025 2.851854
  H 1.958924 0.787700 2.951996
  H 2.858326 -0.646518 -3.026873
  H 2.858278 1.110651 -2.927684
  H 0.434913 1.082299 -2.308267
  H 0.434979 -0.687980 -2.408204
 21
 51.498793
  C 0.698252 0.049483 0.259018
  C 2.227037 0.058270 0.103138
  C 3.182022 -0.010406 1.319988
  C 2.568547 -0.089608 2.723581
  H 3.377179 -0.131086 3.458512
  C 2.880174 0.124056 -1.062745
  C 2.410739 0.204455 -2.487615
  C 0.914314 0.220665 -2.775127
  H 0.758562 0.281489 -3.852944
  H 3.967245 0.122050 -1.027193
  H 1.283479 -0.000190 1.139182
  H 0.208445 -0.836321 -0.091896
  H 0.208460 0.969149 0.009992
  H 3.829907 0.873111 1.283820
  H 3.829902 -0.884240 1.184641
  H 1.960161 -0.987903 2.852732
  H 1.960158 0.788481 2.952986
  H 2.858257 -0.642598 -3.017449
  H 2.858257 1.105759 -2.918797
  H 0.436800 1.079491 -2.316486
  H 0.436799 -0.684346 -2.416014
