 19
 0.000000
  H 1.515688 0.172852 0.481658
  C 2.596765 0.150570 0.425829
  C 3.323868 0.620454 1.594431
  C 2.465732 1.085170 2.751375
  C 3.294692 1.560376 3.934288
  C 3.163392 -0.318993 -0.742898
  C 4.554963 -0.417209 -0.988058
  C 5.039577 -0.889134 -2.164674
  H 4.371576 -1.205245 -2.952547
  H 6.099184 -0.964136 -2.351766
  H 4.012232 1.422477 1.296194
  H 4.012596 -0.164655 1.933915
  H 1.812034 0.271505 3.076645
  H 1.811866 1.897726 2.423425
  H 3.929893 0.764201 4.316315
  H 2.646019 1.885182 4.743047
  H 3.929621 2.399603 3.659415
  H 2.496192 -0.636334 -1.533113
  H 5.240671 -0.105976 -0.212340
 19
 4.505306
  H 1.517416 0.167716 0.468692
  C 2.596944 0.158703 0.445783
  C 3.307880 0.627355 1.611657
  C 2.443764 1.093192 2.771863
  C 3.271226 1.570499 3.959494
  C 3.200160 -0.294953 -0.683685
  C 4.563520 -0.423879 -1.004553
  C 4.987236 -0.908978 -2.213716
  H 4.291805 -1.214912 -2.976821
  H 6.032815 -1.000929 -2.442406
  H 4.005036 1.429993 1.312766
  H 4.005696 -0.158701 1.950355
  H 1.788360 0.280222 3.095162
  H 1.788128 1.903679 2.443092
  H 3.906121 0.775440 4.342878
  H 2.620562 1.894756 4.766966
  H 3.905720 2.410324 3.686033
  H 2.725973 -0.650097 -1.568583
  H 5.316259 -0.131910 -0.276064
 19
 14.446751
  H 1.529769 0.166316 0.467199
  C 2.606229 0.163940 0.461496
  C 3.303593 0.636342 1.636482
  C 2.430194 1.099152 2.785699
  C 3.246562 1.581630 3.986413
  C 3.233748 -0.285705 -0.658136
  C 4.570646 -0.436180 -1.034924
  C 4.940805 -0.925849 -2.258258
  H 4.228706 -1.222506 -2.999070
  H 5.967027 -1.030024 -2.519417
  H 4.004590 1.436528 1.342902
  H 4.004089 -0.144745 1.978693
  H 1.769226 0.280165 3.103483
  H 1.770640 1.910851 2.447505
  H 3.880866 0.788241 4.377679
  H 2.585302 1.904804 4.788254
  H 3.882447 2.424395 3.719328
  H 2.915602 -0.660861 -1.591974
  H 5.373835 -0.164640 -0.358524
 19
 27.974439
  H 1.520046 0.169632 0.474657
  C 2.603505 0.169758 0.474685
  C 3.297712 0.645709 1.658934
  C 2.421653 1.106505 2.803509
  C 3.226672 1.586284 3.998972
  C 3.244147 -0.280475 -0.646029
  C 4.572111 -0.449476 -1.070626
  C 4.911023 -0.938297 -2.287755
  H 4.178686 -1.238917 -3.034134
  H 5.943677 -1.049100 -2.566115
  H 3.997762 1.441421 1.368927
  H 3.996870 -0.129839 2.000861
  H 1.765607 0.293699 3.116130
  H 1.767008 1.910794 2.466102
  H 3.861729 0.791228 4.392784
  H 2.560810 1.908365 4.798282
  H 3.863147 2.431179 3.733318
  H 3.065375 -0.668370 -1.609955
  H 5.420209 -0.186166 -0.418006
 19
 43.145243
  H 1.513715 0.177192 0.489381
  C 2.595203 0.174757 0.486391
  C 3.291238 0.651047 1.674669
  C 2.415842 1.108415 2.807649
  C 3.220602 1.587874 4.004123
  C 3.231613 -0.271020 -0.621159
  C 4.565535 -0.457708 -1.096126
  C 4.897499 -0.948688 -2.312890
  H 4.175433 -1.252698 -3.060093
  H 5.935254 -1.058208 -2.591858
  H 3.991396 1.450143 1.383836
  H 3.988826 -0.128522 2.019933
  H 1.757416 0.292736 3.119355
  H 1.760837 1.914986 2.466700
  H 3.851975 0.795887 4.396707
  H 2.556029 1.909630 4.800332
  H 3.855645 2.428788 3.739686
  H 3.170264 -0.667403 -1.601685
  H 5.425515 -0.202930 -0.474391
 19
 51.892568
  H 1.558352 0.201666 0.511105
  C 2.644358 0.173442 0.476967
  C 3.348329 0.659126 1.723303
  C 2.405288 1.116151 2.818845
  C 3.187906 1.597764 4.039478
  C 3.228668 -0.264263 -0.590924
  C 4.534692 -0.476978 -1.194464
  C 4.888040 -0.978596 -2.378835
  H 4.202568 -1.323168 -3.144285
  H 5.925884 -1.063357 -2.637041
  H 4.025127 1.472970 1.438385
  H 4.005240 -0.134651 2.096196
  H 1.743970 0.297861 3.115031
  H 1.766285 1.924769 2.454287
  H 3.808927 0.800113 4.447214
  H 2.500269 1.923091 4.819669
  H 3.832730 2.438465 3.783803
  H 3.197056 -0.692077 -1.602932
  H 5.388648 -0.179333 -0.573140
 19
 56.723252
  H 1.571215 0.223367 0.554331
  C 2.655289 0.183331 0.496079
  C 3.358879 0.667063 1.744655
  C 2.405982 1.119847 2.825495
  C 3.175716 1.598914 4.049001
  C 3.229136 -0.259766 -0.580079
  C 4.515657 -0.496625 -1.256274
  C 4.898147 -1.001038 -2.424078
  H 4.234722 -1.365207 -3.202243
  H 5.936577 -1.069525 -2.659750
  H 4.012909 1.486268 1.465819
  H 3.986456 -0.130997 2.122304
  H 1.748042 0.294074 3.117214
  H 1.776218 1.935344 2.454777
  H 3.790630 0.801542 4.456539
  H 2.486068 1.923017 4.823686
  H 3.819941 2.437246 3.798023
  H 3.238813 -0.691323 -1.592279
  H 5.339543 -0.170805 -0.610191
 19
 61.853403
  H 1.566759 0.231562 0.564539
  C 2.645807 0.188735 0.499935
  C 3.357135 0.666995 1.739972
  C 2.393534 1.123428 2.833264
  C 3.174493 1.602447 4.066898
  C 3.207125 -0.255744 -0.577961
  C 4.502840 -0.504277 -1.289939
  C 4.908378 -1.017510 -2.448734
  H 4.251918 -1.401353 -3.228679
  H 5.971797 -1.074638 -2.674467
  H 4.017060 1.495808 1.458639
  H 3.987483 -0.145835 2.118469
  H 1.736227 0.296811 3.124787
  H 1.767039 1.942921 2.464653
  H 3.794140 0.796993 4.475236
  H 2.482517 1.929434 4.850700
  H 3.825604 2.446263 3.815157
  H 3.277637 -0.689529 -1.597376
  H 5.298580 -0.153185 -0.623888
 19
 66.455519
  H 1.537145 0.241541 0.574543
  C 2.622442 0.194708 0.505789
  C 3.348709 0.667688 1.742258
  C 2.401410 1.124414 2.836256
  C 3.182909 1.593538 4.053596
  C 3.167867 -0.253186 -0.578360
  C 4.489262 -0.500960 -1.300414
  C 4.922385 -1.024318 -2.446378
  H 4.293260 -1.426184 -3.216099
  H 5.971625 -1.063155 -2.649910
  H 4.010042 1.494732 1.459269
  H 3.976456 -0.151156 2.115939
  H 1.749712 0.308773 3.127848
  H 1.784067 1.939004 2.476248
  H 3.795920 0.791495 4.453359
  H 2.503538 1.919322 4.834026
  H 3.830339 2.427390 3.801252
  H 3.312078 -0.690476 -1.610370
  H 5.265102 -0.117706 -0.612131
 19
 70.578646
  H 1.513784 0.248683 0.577963
  C 2.600316 0.195883 0.501228
  C 3.340578 0.662669 1.733564
  C 2.404793 1.122594 2.832580
  C 3.202196 1.589749 4.055588
  C 3.131827 -0.255009 -0.589660
  C 4.474482 -0.492305 -1.303046
  C 4.933398 -1.028180 -2.432531
  H 4.319093 -1.459133 -3.207097
  H 5.995690 -1.047724 -2.621316
  H 4.000871 1.481697 1.447551
  H 3.961319 -0.156836 2.097557
  H 1.742686 0.299684 3.130086
  H 1.782839 1.951087 2.472655
  H 3.813697 0.784454 4.451569
  H 2.528683 1.918785 4.842033
  H 3.853583 2.421418 3.801216
  H 3.348206 -0.688708 -1.619144
  H 5.231086 -0.076965 -0.605755
 19
 74.005279
  H 1.487360 0.261321 0.588662
  C 2.565555 0.197508 0.492643
  C 3.329416 0.655472 1.719252
  C 2.411312 1.121335 2.829587
  C 3.226190 1.576336 4.036446
  C 3.072134 -0.255824 -0.602844
  C 4.445876 -0.474878 -1.293601
  C 4.955606 -1.025556 -2.396056
  H 4.382497 -1.495123 -3.176762
  H 6.019148 -1.015174 -2.551140
  H 3.998607 1.475915 1.424258
  H 3.951914 -0.178017 2.078378
  H 1.751482 0.311566 3.131105
  H 1.798166 1.948009 2.481905
  H 3.837816 0.760050 4.423612
  H 2.562854 1.911453 4.835381
  H 3.884039 2.405396 3.772440
  H 3.366109 -0.684949 -1.628092
  H 5.167058 -0.024756 -0.596593
 19
 76.817897
  H 1.437827 0.270649 0.604561
  C 2.522099 0.196102 0.484054
  C 3.314956 0.642617 1.693419
  C 2.420975 1.121108 2.830491
  C 3.267323 1.566119 4.024878
  C 3.002645 -0.264052 -0.624678
  C 4.421881 -0.458788 -1.285669
  C 4.993063 -1.020485 -2.352704
  H 4.466411 -1.529237 -3.144193
  H 6.064799 -0.978707 -2.466873
  H 3.980297 1.446843 1.386900
  H 3.927483 -0.189345 2.033877
  H 1.754161 0.314471 3.146704
  H 1.806437 1.961292 2.495221
  H 3.874190 0.746310 4.397512
  H 2.628418 1.905641 4.832624
  H 3.926606 2.384482 3.750591
  H 3.380705 -0.677068 -1.655594
  H 5.097757 0.030532 -0.573087
 19
 78.521961
  H 1.449938 0.258541 0.612307
  C 2.524990 0.194311 0.491012
  C 3.320118 0.645264 1.700910
  C 2.428076 1.118364 2.837757
  C 3.270189 1.565418 4.025157
  C 3.005487 -0.265687 -0.617612
  C 4.427072 -0.449343 -1.304711
  C 5.002948 -1.031649 -2.355167
  H 4.485201 -1.571985 -3.116745
  H 6.079093 -0.970961 -2.479819
  H 3.980127 1.452020 1.393356
  H 3.936589 -0.182013 2.039569
  H 1.766916 0.309894 3.154188
  H 1.810841 1.952282 2.505084
  H 3.885661 0.742984 4.398834
  H 2.626017 1.903769 4.839166
  H 3.928998 2.392679 3.747690
  H 3.397065 -0.665019 -1.659931
  H 5.086908 0.074090 -0.613169
 19
 81.354553
  H 1.462657 0.259860 0.620556
  C 2.539446 0.201939 0.500704
  C 3.330108 0.650304 1.713901
  C 2.428146 1.120499 2.850984
  C 3.266025 1.567023 4.045277
  C 3.016575 -0.258945 -0.604183
  C 4.443103 -0.444051 -1.336620
  C 5.018109 -1.055078 -2.376420
  H 4.490308 -1.635893 -3.128555
  H 6.079850 -0.985455 -2.509587
  H 3.995309 1.465609 1.408262
  H 3.952233 -0.185328 2.056505
  H 1.766497 0.309547 3.163297
  H 1.809727 1.956223 2.517011
  H 3.876823 0.751164 4.416970
  H 2.622274 1.900270 4.852301
  H 3.919803 2.389617 3.774820
  H 3.428082 -0.634156 -1.687749
  H 5.098479 0.109788 -0.659934
