 23
 0.000000
  C 0.995798 0.132321 0.380257
  C 2.467955 0.143907 0.411311
  C 3.226677 0.617479 1.589336
  C 2.429386 1.103538 2.796032
  C 3.368032 1.551677 3.912542
  C 3.123842 -0.314818 -0.728178
  C 4.507086 -0.385574 -0.906482
  C 5.098215 -0.848522 -2.060233
  H 4.553187 -1.198799 -2.928436
  O 6.384224 -0.920405 -2.247264
  H 0.541549 0.499673 1.292313
  H 0.637860 -0.881568 0.194135
  H 0.638935 0.735220 -0.456340
  H 3.887987 1.429958 1.266999
  H 3.886796 -0.192682 1.919838
  H 1.791466 0.303700 3.175955
  H 1.792962 1.944688 2.515948
  H 4.002865 0.732048 4.241521
  H 2.796221 1.897087 4.770179
  H 4.004456 2.369791 3.582868
  H 2.500651 -0.644959 -1.548588
  H 5.152599 -0.061031 -0.101158
  H 6.919463 -0.612408 -1.487966
 23
 13.418516
  C 0.965387 0.145793 0.413178
  C 2.424056 0.161344 0.454582
  C 3.190615 0.627237 1.613700
  C 2.408245 1.116828 2.828937
  C 3.362430 1.560093 3.934036
  C 3.144141 -0.341100 -0.792931
  C 4.521496 -0.404427 -0.953567
  C 5.106256 -0.865255 -2.100606
  H 4.567094 -1.215276 -2.965583
  O 6.518379 -0.942881 -2.304190
  H 0.506043 0.512360 1.322936
  H 0.611190 -0.869189 0.221687
  H 0.612549 0.745800 -0.428134
  H 3.854540 1.435351 1.282923
  H 3.853082 -0.185824 1.935167
  H 1.771247 0.319912 3.216173
  H 1.773077 1.961178 2.556131
  H 3.997033 0.737365 4.255539
  H 2.802769 1.908262 4.798390
  H 3.998995 2.375057 3.597003
  H 2.521964 -0.670345 -1.610200
  H 5.162457 -0.077639 -0.144455
  H 7.035207 -0.632563 -1.542220
 23
 41.700149
  C 0.896859 0.143285 0.407667
  C 2.350728 0.175445 0.489871
  C 3.162031 0.628430 1.616484
  C 2.420803 1.127602 2.855349
  C 3.412935 1.559295 3.931292
  C 3.142068 -0.372413 -0.870615
  C 4.511741 -0.411496 -0.970952
  C 5.100424 -0.862181 -2.094739
  H 4.623214 -1.221676 -2.986216
  O 6.639030 -0.922996 -2.255736
  H 0.423293 0.508080 1.313758
  H 0.550485 -0.874216 0.211394
  H 0.551569 0.741627 -0.438836
  H 3.834253 1.421234 1.263165
  H 3.832912 -0.189067 1.911101
  H 1.785861 0.340214 3.263494
  H 1.787633 1.979449 2.604015
  H 4.046905 0.729381 4.234936
  H 2.883373 1.914106 4.811995
  H 4.048880 2.366925 3.576205
  H 2.509267 -0.696715 -1.675813
  H 5.122896 -0.080132 -0.148837
  H 7.058472 -0.596052 -1.445911
 23
 74.741299
  C 0.870429 0.158485 0.445860
  C 2.293505 0.195440 0.539311
  C 3.128606 0.630469 1.621067
  C 2.409186 1.138661 2.883054
  C 3.425362 1.562722 3.939628
  C 3.137179 -0.401762 -0.944234
  C 4.504513 -0.429662 -1.016055
  C 5.106982 -0.879615 -2.137961
  H 4.699277 -1.248000 -3.052477
  O 6.769775 -0.920133 -2.248367
  H 0.387561 0.522951 1.351198
  H 0.529169 -0.864856 0.234428
  H 0.530047 0.750601 -0.415575
  H 3.803947 1.417952 1.246224
  H 3.802839 -0.198126 1.896239
  H 1.777146 0.353639 3.300554
  H 1.778447 1.995031 2.640320
  H 4.058861 0.728375 4.231355
  H 2.915773 1.921406 4.830500
  H 4.060360 2.365710 3.572811
  H 2.478920 -0.716596 -1.726084
  H 5.101519 -0.093657 -0.181973
  H 7.106741 -0.576720 -1.396355
 23
 109.283838
  C 0.811826 0.169319 0.473048
  C 2.237486 0.212943 0.582644
  C 3.094927 0.641467 1.648250
  C 2.402880 1.151360 2.914902
  C 3.438790 1.567964 3.952478
  C 3.143983 -0.430102 -1.015409
  C 4.512100 -0.449000 -1.064475
  C 5.124656 -0.895217 -2.176768
  H 4.757949 -1.269974 -3.107472
  O 6.911841 -0.921190 -2.250412
  H 0.317494 0.531032 1.371865
  H 0.478397 -0.848514 0.253461
  H 0.479085 0.751822 -0.390259
  H 3.768429 1.418913 1.263688
  H 3.767486 -0.186482 1.909239
  H 1.773772 0.369973 3.340710
  H 1.774816 2.010646 2.680797
  H 4.071711 0.729486 4.233793
  H 2.946530 1.929803 4.851481
  H 4.072830 2.366961 3.575201
  H 2.474308 -0.742288 -1.790920
  H 5.095361 -0.110362 -0.223460
  H 7.189260 -0.580216 -1.403868
 23
 140.926636
  C 0.760094 0.180667 0.502384
  C 2.158619 0.233355 0.633603
  C 3.047159 0.642412 1.650748
  C 2.402938 1.165025 2.949610
  C 3.481451 1.566978 3.948704
  C 3.130235 -0.465382 -1.104661
  C 4.494157 -0.468879 -1.114119
  C 5.143253 -0.908391 -2.211972
  H 4.882841 -1.291515 -3.167328
  O 7.028232 -0.892016 -2.176570
  H 0.243656 0.539374 1.394833
  H 0.438047 -0.843071 0.266469
  H 0.437956 0.756124 -0.376508
  H 3.723463 1.408463 1.237409
  H 3.723197 -0.196870 1.882797
  H 1.778563 0.390299 3.394649
  H 1.778810 2.032312 2.734154
  H 4.112533 0.720460 4.208704
  H 3.025344 1.935337 4.864089
  H 4.112484 2.357635 3.549806
  H 2.439177 -0.768164 -1.858385
  H 5.049158 -0.123512 -0.254018
  H 7.206686 -0.544463 -1.306292
 23
 169.574646
  C 0.708124 0.194322 0.536540
  C 2.103913 0.251945 0.680958
  C 3.011028 0.652655 1.677457
  C 2.392986 1.177995 2.981592
  C 3.489338 1.572436 3.961570
  C 3.141423 -0.497634 -1.183421
  C 4.502241 -0.493000 -1.172166
  C 5.160022 -0.927388 -2.260679
  H 4.942998 -1.313974 -3.228011
  O 7.152637 -0.891085 -2.177417
  H 0.180403 0.550889 1.423165
  H 0.393503 -0.825185 0.293762
  H 0.393781 0.761950 -0.344462
  H 3.685810 1.409433 1.253044
  H 3.685127 -0.187708 1.895609
  H 1.770793 0.406755 3.434109
  H 1.771470 2.048044 2.773274
  H 4.118924 0.721910 4.212356
  H 3.049734 1.943950 4.883541
  H 4.119197 2.359089 3.552740
  H 2.438625 -0.797120 -1.930499
  H 5.045474 -0.145645 -0.304736
  H 7.286756 -0.541353 -1.297098
 23
 194.553532
  C 0.661670 0.207372 0.569010
  C 2.047212 0.269791 0.726686
  C 2.971889 0.662584 1.703774
  C 2.376433 1.195566 3.024917
  C 3.492352 1.582695 3.986513
  C 3.153242 -0.531844 -1.266730
  C 4.512028 -0.519429 -1.235663
  C 5.178376 -0.950419 -2.319052
  H 5.005374 -1.337845 -3.291508
  O 7.273496 -0.893733 -2.188086
  H 0.120362 0.562502 1.451360
  H 0.353081 -0.816248 0.318264
  H 0.353915 0.772514 -0.320790
  H 3.648441 1.413956 1.265285
  H 3.647149 -0.183920 1.908739
  H 1.755817 0.427612 3.486502
  H 1.757101 2.069823 2.824542
  H 4.120078 0.728209 4.228011
  H 3.069742 1.957631 4.915400
  H 4.120874 2.365045 3.567684
  H 2.442109 -0.826935 -2.004339
  H 5.044084 -0.170514 -0.362209
  H 7.367339 -0.544628 -1.305282
 23
 215.305930
  C 0.611964 0.221766 0.604261
  C 1.991672 0.290148 0.778680
  C 2.930323 0.673743 1.733524
  C 2.360312 1.211507 3.063924
  C 3.493658 1.589963 4.004401
  C 3.170587 -0.564046 -1.344082
  C 4.526354 -0.543216 -1.292192
  C 5.193956 -0.971341 -2.371401
  H 5.057896 -1.360569 -3.350596
  O 7.389002 -0.896963 -2.201923
  H 0.054715 0.574193 1.478844
  H 0.311857 -0.801327 0.346015
  H 0.313624 0.781492 -0.290757
  H 3.606016 1.417140 1.283560
  H 3.603716 -0.175533 1.925814
  H 1.742206 0.447704 3.533262
  H 1.744549 2.088596 2.870899
  H 4.118973 0.731270 4.236614
  H 3.088179 1.968149 4.939384
  H 4.120738 2.367835 3.575450
  H 2.450557 -0.856678 -2.076486
  H 5.049462 -0.192669 -0.413632
  H 7.450113 -0.547337 -1.314750
 23
 231.759971
  C 0.566055 0.234474 0.635157
  C 1.934708 0.310579 0.830664
  C 2.886328 0.687764 1.770330
  C 2.335230 1.231481 3.112875
  C 3.484185 1.603385 4.037902
  C 3.197309 -0.595364 -1.419185
  C 4.553177 -0.565941 -1.345806
  C 5.206405 -0.994603 -2.428892
  H 5.089620 -1.383594 -3.409434
  O 7.501220 -0.915251 -2.253838
  H -0.011284 0.583517 1.500090
  H 0.276698 -0.790931 0.368472
  H 0.279425 0.790093 -0.267833
  H 3.563414 1.425937 1.310265
  H 3.559955 -0.165403 1.952863
  H 1.718061 0.469865 3.588565
  H 1.721541 2.111981 2.924814
  H 4.107464 0.741298 4.263267
  H 3.092088 1.984377 4.977928
  H 4.110343 2.377816 3.601245
  H 2.474613 -0.887072 -2.150097
  H 5.073370 -0.214961 -0.465271
  H 7.545749 -0.566451 -1.366370
 23
 145.135228
  C 0.455316 0.380672 0.875908
  C 1.819709 0.351267 1.209454
  C 2.674655 0.742467 2.244202
  C 2.057181 1.479124 3.465207
  C 3.136390 1.829220 4.483548
  C 3.804783 -1.129268 -1.917523
  C 5.168192 -1.174210 -1.906958
  C 5.895313 -1.152402 -3.085694
  H 5.423302 -1.295723 -4.038574
  O 7.134888 -0.748276 -3.204560
  H -0.214480 0.810533 1.645053
  H 0.128036 -0.647395 0.614701
  H 0.346357 0.939128 -0.086226
  H 3.481463 1.331487 1.809681
  H 3.217018 -0.170559 2.574181
  H 1.310204 0.835840 3.928217
  H 1.553326 2.397810 3.118512
  H 3.635696 0.930338 4.854752
  H 2.693812 2.342868 5.337472
  H 3.880362 2.483833 4.052588
  H 3.267304 -1.432153 -2.800963
  H 5.688626 -0.989435 -0.992230
  H 7.565327 -0.613148 -2.339171
 23
 143.889979
  C 0.571245 0.407795 0.839284
  C 1.945304 0.346197 1.151314
  C 2.732290 0.751662 2.247544
  C 2.040389 1.458691 3.433863
  C 3.056139 1.813224 4.509176
  C 3.831480 -1.122086 -1.852561
  C 5.175540 -1.246315 -1.833107
  C 5.820762 -1.188752 -3.070103
  H 5.273399 -1.396701 -3.982457
  O 6.992624 -0.662150 -3.292938
  H -0.077655 0.845300 1.605084
  H 0.227771 -0.596908 0.573780
  H 0.468892 0.956661 -0.102928
  H 3.548279 1.376541 1.856223
  H 3.266255 -0.143758 2.599226
  H 1.278535 0.798345 3.850534
  H 1.552154 2.364909 3.075878
  H 3.544004 0.923166 4.895356
  H 2.561525 2.310005 5.339470
  H 3.817832 2.485609 4.122913
  H 3.246632 -1.415103 -2.714479
  H 5.740394 -1.080788 -0.928971
  H 7.508992 -0.483525 -2.480522
