 25
 0.000000
  C 0.905405 0.048701 0.272641
  C 2.396477 0.059191 0.086679
  C 3.243488 -0.012094 1.350090
  C 2.524821 -0.087931 2.694001
  H 3.251399 -0.133301 3.498102
  C 2.991779 0.127416 -1.122391
  C 2.351722 0.204896 -2.495498
  C 0.841346 0.217058 -2.710978
  H 0.632113 0.277083 -3.774760
  C 4.453455 0.132513 -1.212651
  C 5.192924 0.194805 -2.316710
  H 6.269956 0.193543 -2.294293
  H 0.616644 -0.010173 1.315942
  H 0.460310 -0.813607 -0.216730
  H 0.460311 0.960588 -0.116616
  H 3.889891 0.870514 1.379297
  H 3.889895 -0.892386 1.279823
  H 1.898620 -0.976946 2.751752
  H 1.898612 0.788941 2.851398
  H 2.744596 -0.643239 -3.066807
  H 2.744592 1.111912 -2.967763
  H 0.379650 1.076274 -2.233507
  H 0.379649 -0.690417 -2.333197
  H 4.995203 0.079948 -0.281066
  H 4.808060 0.251491 -3.321273
 25
 12.977328
  C 0.760233 0.045458 0.330108
  C 2.412428 0.057079 0.124118
  C 3.257684 -0.013292 1.371318
  C 2.536201 -0.089032 2.713498
  H 3.266737 -0.134369 3.517013
  C 3.038850 0.130589 -1.178614
  C 2.380801 0.207334 -2.538711
  C 0.867338 0.217447 -2.717870
  H 0.637352 0.277356 -3.779616
  C 4.492397 0.135097 -1.258460
  C 5.239515 0.197175 -2.358700
  H 6.316528 0.194958 -2.319377
  H 0.490470 -0.013580 1.376334
  H 0.324886 -0.815335 -0.162720
  H 0.324887 0.956230 -0.062753
  H 3.905088 0.869657 1.398522
  H 3.905087 -0.893692 1.299023
  H 1.911673 -0.978123 2.773189
  H 1.911668 0.787695 2.872832
  H 2.765392 -0.640788 -3.116623
  H 2.765392 1.115086 -3.017543
  H 0.415074 1.075566 -2.231592
  H 0.415070 -0.689934 -2.331210
  H 5.026738 0.082244 -0.321773
  H 4.857881 0.253916 -3.364272
 25
 37.913167
  C 0.602885 0.045515 0.329194
  C 2.494709 0.057747 0.112339
  C 3.292166 -0.014756 1.397140
  C 2.512864 -0.089067 2.714113
  H 3.217535 -0.135714 3.540761
  C 3.084586 0.133515 -1.230368
  C 2.394134 0.208691 -2.562661
  C 0.877734 0.214215 -2.660625
  H 0.603285 0.273446 -3.710330
  C 4.536260 0.137541 -1.301762
  C 5.271322 0.199584 -2.401338
  H 6.346851 0.196043 -2.338475
  H 0.437541 -0.013811 1.380436
  H 0.259573 -0.828720 -0.195358
  H 0.259579 0.973218 -0.093670
  H 3.943613 0.866592 1.453820
  H 3.943615 -0.896889 1.354310
  H 1.891073 -0.980331 2.753200
  H 1.891072 0.792151 2.853216
  H 2.764074 -0.635742 -3.150120
  H 2.764060 1.113827 -3.051381
  H 0.448375 1.074643 -2.152984
  H 0.448376 -0.697879 -2.252996
  H 5.067881 0.084763 -0.366380
  H 4.863306 0.255600 -3.394084
 25
 65.841372
  C 0.382499 0.040846 0.411727
  C 2.575013 0.059399 0.083022
  C 3.350634 -0.012163 1.351239
  C 2.534375 -0.084267 2.629005
  H 3.208982 -0.132702 3.487513
  C 3.126295 0.132885 -1.219227
  C 2.437189 0.207713 -2.545355
  C 0.923484 0.212620 -2.632242
  H 0.632551 0.272230 -3.688747
  C 4.570826 0.136922 -1.290753
  C 5.301764 0.199658 -2.402683
  H 6.383648 0.196640 -2.349355
  H 0.285647 -0.019543 1.481825
  H 0.048604 -0.840952 -0.109204
  H 0.048602 0.975655 -0.006690
  H 3.993960 0.864160 1.411793
  H 3.994000 -0.889760 1.312814
  H 1.906799 -0.970145 2.636785
  H 1.906761 0.795153 2.736399
  H 2.794501 -0.640781 -3.133030
  H 2.794487 1.116952 -3.033875
  H 0.503682 1.067051 -2.117823
  H 0.503660 -0.694275 -2.217185
  H 5.104618 0.083840 -0.350079
  H 4.880608 0.255583 -3.393951
 25
 87.330405
  C 0.188001 0.039196 0.440686
  C 2.680806 0.061486 0.045910
  C 3.385892 -0.012088 1.349549
  C 2.496894 -0.081935 2.587115
  H 3.117251 -0.132294 3.479265
  C 3.199735 0.132910 -1.219464
  C 2.482670 0.207197 -2.536253
  C 0.955580 0.207544 -2.543800
  H 0.608207 0.265733 -3.574717
  C 4.648890 0.139481 -1.335257
  C 5.347166 0.203514 -2.470216
  H 6.421153 0.202248 -2.447868
  H 0.151797 -0.021215 1.514644
  H -0.099769 -0.849963 -0.088268
  H -0.099516 0.982512 0.015214
  H 4.031164 0.869348 1.444258
  H 4.031170 -0.898596 1.344451
  H 1.868646 -0.967543 2.557157
  H 1.868672 0.801423 2.657001
  H 2.820757 -0.642675 -3.139095
  H 2.820734 1.119499 -3.039516
  H 0.560875 1.064180 -2.002886
  H 0.561016 -0.704585 -2.102767
  H 5.200380 0.087216 -0.408853
  H 4.895202 0.258448 -3.444639
 25
 101.412270
  C -0.032914 0.035874 0.500498
  C 2.741672 0.063661 0.007633
  C 3.414030 -0.010491 1.321229
  C 2.511219 -0.079635 2.546411
  H 3.118847 -0.130462 3.446619
  C 3.238331 0.133538 -1.230297
  C 2.489273 0.208318 -2.555801
  C 0.984032 0.205191 -2.501871
  H 0.589210 0.262331 -3.514695
  C 4.712484 0.140432 -1.351859
  C 5.411967 0.203751 -2.474385
  H 6.504096 0.201992 -2.443931
  H -0.007702 -0.024990 1.579033
  H -0.285266 -0.860511 -0.037217
  H -0.284966 0.987269 0.067023
  H 4.057727 0.869020 1.425410
  H 4.057719 -0.896181 1.325762
  H 1.885762 -0.962004 2.503923
  H 1.885788 0.801962 2.603504
  H 2.808301 -0.634393 -3.163301
  H 2.808229 1.114014 -3.064549
  H 0.618735 1.054574 -1.944031
  H 0.618874 -0.701624 -2.043157
  H 5.247519 0.087926 -0.421318
  H 4.960031 0.258935 -3.453719
 25
 109.801023
  C -0.223120 0.031267 0.581935
  C 2.821816 0.066177 -0.037266
  C 3.444840 -0.009570 1.304692
  C 2.472013 -0.076650 2.493280
  H 3.026919 -0.129062 3.421674
  C 3.305105 0.134595 -1.249408
  C 2.541358 0.208159 -2.553544
  C 1.023862 0.201611 -2.438599
  H 0.583633 0.257335 -3.426784
  C 4.766848 0.142497 -1.388749
  C 5.449094 0.206729 -2.527100
  H 6.528772 0.206211 -2.517265
  H -0.138353 -0.029903 1.664563
  H -0.441208 -0.870222 0.030121
  H -0.441004 0.989576 0.134838
  H 4.088716 0.874533 1.439508
  H 4.088689 -0.903233 1.339167
  H 1.845419 -0.956457 2.415932
  H 1.845466 0.806274 2.515431
  H 2.851997 -0.639866 -3.171790
  H 2.851849 1.120250 -3.072383
  H 0.678855 1.059826 -1.854594
  H 0.678982 -0.716783 -1.954889
  H 5.304835 0.090433 -0.465640
  H 4.981336 0.261284 -3.494787
 25
 113.851818
  C -0.390241 0.026542 0.667269
  C 2.889273 0.066685 -0.046276
  C 3.448096 -0.009323 1.300293
  C 2.411633 -0.072278 2.416357
  H 2.905579 -0.126724 3.380795
  C 3.376836 0.135676 -1.268884
  C 2.579672 0.207157 -2.535876
  C 1.079715 0.196153 -2.341306
  H 0.583002 0.250123 -3.298074
  C 4.841676 0.145696 -1.446161
  C 5.489277 0.210947 -2.602230
  H 6.581675 0.212559 -2.629202
  H -0.293275 -0.033143 1.723834
  H -0.569496 -0.861768 0.112475
  H -0.569181 0.971591 0.215987
  H 4.082493 0.874513 1.469974
  H 4.082432 -0.906669 1.369458
  H 1.786172 -0.949976 2.295572
  H 1.786262 0.813435 2.395103
  H 2.866518 -0.638092 -3.162724
  H 2.866448 1.117509 -3.063614
  H 0.772051 1.037617 -1.745342
  H 0.772046 -0.707080 -1.843717
  H 5.405463 0.094212 -0.533021
  H 4.993604 0.264828 -3.556699
 25
 115.640482
  C -0.553005 0.022048 0.747426
  C 2.970143 0.067895 -0.067439
  C 3.470596 -0.009467 1.303148
  C 2.367369 -0.069039 2.359109
  H 2.799107 -0.124977 3.350090
  C 3.451812 0.137050 -1.292787
  C 2.611233 0.207317 -2.538123
  C 1.101565 0.191962 -2.266357
  H 0.553030 0.244302 -3.194081
  C 4.912389 0.148247 -1.490822
  C 5.540872 0.214152 -2.658578
  H 6.623763 0.216855 -2.706278
  H -0.482119 -0.037948 1.809943
  H -0.692132 -0.872957 0.176457
  H -0.691758 0.975344 0.281025
  H 4.094274 0.870151 1.506108
  H 4.094255 -0.906368 1.405852
  H 1.744393 -0.944199 2.198135
  H 1.744484 0.818626 2.297625
  H 2.875758 -0.640058 -3.177122
  H 2.875655 1.120961 -3.077573
  H 0.821028 1.032862 -1.649981
  H 0.821014 -0.713063 -1.748389
  H 5.485735 0.097223 -0.586661
  H 5.029087 0.267295 -3.600913
 25
 116.026570
  C -0.717801 0.016493 0.843262
  C 3.052867 0.068901 -0.085523
  C 3.481773 -0.009318 1.300583
  C 2.307025 -0.065379 2.293745
  H 2.678130 -0.123257 3.319331
  C 3.518825 0.137996 -1.309511
  C 2.634826 0.206921 -2.531090
  C 1.152835 0.187863 -2.194232
  H 0.557239 0.239106 -3.102537
  C 4.978322 0.151069 -1.540148
  C 5.576875 0.217716 -2.721390
  H 6.656697 0.221841 -2.796729
  H -0.662891 -0.043833 1.911288
  H -0.826701 -0.875009 0.266872
  H -0.826445 0.967569 0.370712
  H 4.092479 0.864959 1.537939
  H 4.092513 -0.904749 1.438065
  H 1.690486 -0.936134 2.093156
  H 1.690507 0.822380 2.192408
  H 2.874237 -0.641598 -3.179781
  H 2.874178 1.122999 -3.080113
  H 0.899685 1.029178 -1.563715
  H 0.899708 -0.719163 -1.662309
  H 5.573136 0.100336 -0.641772
  H 5.040521 0.269747 -3.645766
 25
 116.235289
  C -0.883219 0.010605 0.949757
  C 3.140930 0.069983 -0.103298
  C 3.498518 -0.010084 1.315341
  C 2.260730 -0.062060 2.236393
  H 2.562820 -0.120299 3.268013
  C 3.583535 0.138599 -1.318911
  C 2.658636 0.207008 -2.531165
  C 1.186846 0.185388 -2.148630
  H 0.558051 0.235964 -3.045585
  C 5.025672 0.152984 -1.573157
  C 5.601584 0.220354 -2.769190
  H 6.672619 0.225160 -2.863666
  H -0.821873 -0.048880 2.003708
  H -0.978456 -0.878759 0.372234
  H -0.977865 0.957871 0.476770
  H 4.098769 0.859355 1.587368
  H 4.098749 -0.904608 1.487813
  H 1.655267 -0.924984 2.000158
  H 1.655194 0.822101 2.098750
  H 2.880447 -0.652863 -3.194960
  H 2.880420 1.136352 -3.094166
  H 0.950500 1.029199 -1.507784
  H 0.950624 -0.724873 -1.606920
  H 5.634958 0.102115 -0.674582
  H 5.037372 0.271647 -3.686235
 25
 116.239129
  C -1.056955 0.004196 1.054351
  C 3.211127 0.070002 -0.107330
  C 3.487032 -0.009996 1.310744
  C 2.206251 -0.057020 2.142773
  H 2.449883 -0.117079 3.207382
  C 3.635703 0.138781 -1.325723
  C 2.685100 0.204917 -2.499150
  C 1.240193 0.180393 -2.066927
  H 0.596111 0.228464 -2.920696
  C 5.082842 0.155736 -1.623803
  C 5.623993 0.224090 -2.832430
  H 6.687116 0.231512 -2.958322
  H -0.992623 -0.056048 2.120524
  H -1.148125 -0.891721 0.471936
  H -1.148002 0.963372 0.574623
  H 4.071928 0.860195 1.622069
  H 4.071952 -0.909539 1.522194
  H 1.605608 -0.931487 1.863551
  H 1.605718 0.843010 1.963756
  H 2.884219 -0.647853 -3.162896
  H 2.884170 1.127474 -3.063212
  H 1.024893 1.021445 -1.420797
  H 1.024951 -0.728264 -1.519199
  H 5.708803 0.106756 -0.753800
  H 5.034800 0.274860 -3.730534
