 23
 0.000000
  C 1.004253 0.112616 0.329627
  C 2.479470 0.126060 0.366091
  C 3.229924 0.603042 1.553875
  C 2.411600 1.082293 2.745498
  H 3.083078 1.399862 3.537359
  C 3.143030 -0.329781 -0.767310
  C 4.525446 -0.394086 -0.928378
  C 5.181832 -0.850013 -2.067036
  C 4.529672 -1.345031 -3.298248
  H 3.447928 -1.326830 -3.249540
  O 6.493007 -0.870812 -2.124680
  H 0.550174 0.479474 1.241364
  H 0.647813 -0.901228 0.138801
  H 0.649290 0.713174 -0.509826
  H 3.890700 1.417281 1.235826
  H 3.889815 -0.205432 1.887945
  H 1.783406 0.289187 3.141886
  H 1.784652 1.930068 2.482830
  H 2.519243 -0.658206 -1.585372
  H 5.149423 -0.064909 -0.108581
  H 4.872209 -2.361720 -3.496250
  H 4.870338 -0.746838 -4.144661
  H 6.946358 -0.547916 -1.324396
 23
 14.565756
  C 0.982860 0.123566 0.357367
  C 2.455830 0.138092 0.396494
  C 3.202888 0.615489 1.584790
  C 2.381537 1.094239 2.774723
  H 3.051864 1.412766 3.568623
  C 3.122392 -0.318643 -0.738796
  C 4.496521 -0.380714 -0.894138
  C 5.197055 -0.881866 -2.146132
  C 4.550506 -1.368849 -3.358349
  H 3.469692 -1.347221 -3.301490
  O 6.640354 -0.901009 -2.199829
  H 0.526927 0.490199 1.268237
  H 0.627761 -0.890377 0.165651
  H 0.629232 0.723374 -0.482931
  H 3.863518 1.430054 1.268083
  H 3.862713 -0.192154 1.920257
  H 1.753243 0.300288 3.170341
  H 1.754468 1.942006 2.510686
  H 2.500117 -0.648027 -1.559142
  H 5.130039 -0.055669 -0.084331
  H 4.890704 -2.386340 -3.558566
  H 4.889031 -0.771304 -4.206576
  H 7.071455 -0.576006 -1.393924
 23
 45.253129
  C 0.982013 0.126507 0.365387
  C 2.448388 0.145281 0.417312
  C 3.184770 0.623154 1.604971
  C 2.356062 1.101692 2.789910
  H 3.024690 1.423207 3.589829
  C 3.121668 -0.309101 -0.709667
  C 4.481756 -0.362149 -0.841822
  C 5.175855 -0.909317 -2.214169
  C 4.545010 -1.385989 -3.405456
  H 3.472290 -1.357561 -3.328963
  O 6.767877 -0.913161 -2.232414
  H 0.519637 0.492054 1.272889
  H 0.631272 -0.887774 0.174374
  H 0.633064 0.725552 -0.475833
  H 3.846220 1.437250 1.292127
  H 3.844573 -0.181393 1.944568
  H 1.726440 0.305529 3.184411
  H 1.728755 1.950462 2.521616
  H 2.508139 -0.640133 -1.535092
  H 5.153890 -0.053006 -0.069808
  H 4.873867 -2.402343 -3.610819
  H 4.872153 -0.791413 -4.255488
  H 7.108587 -0.580260 -1.403971
 23
 80.733491
  C 0.972619 0.132417 0.377542
  C 2.436396 0.154157 0.440752
  C 3.167294 0.631300 1.628134
  C 2.334224 1.109722 2.810009
  H 2.994970 1.428999 3.606057
  C 3.118735 -0.299880 -0.683679
  C 4.465431 -0.345745 -0.797986
  C 5.139118 -0.931916 -2.269747
  C 4.534066 -1.405536 -3.451549
  H 3.442694 -1.377326 -3.372540
  O 6.902388 -0.920937 -2.258991
  H 0.500673 0.497128 1.280912
  H 0.625443 -0.884623 0.179516
  H 0.629250 0.729607 -0.470678
  H 3.831632 1.445923 1.316018
  H 3.828175 -0.174338 1.969393
  H 1.706085 0.316413 3.201869
  H 1.710205 1.955783 2.541073
  H 2.513239 -0.631505 -1.511538
  H 5.187910 -0.050804 -0.063089
  H 4.876874 -2.431095 -3.664821
  H 4.872819 -0.808170 -4.313792
  H 7.157967 -0.575769 -1.403178
 23
 116.040036
  C 0.946480 0.148443 0.396391
  C 2.411648 0.155909 0.467901
  C 3.144054 0.632183 1.659917
  C 2.310483 1.124610 2.836562
  H 2.976258 1.443150 3.640948
  C 3.107793 -0.315581 -0.674459
  C 4.449816 -0.358555 -0.785460
  C 5.097194 -0.953212 -2.315281
  C 4.524530 -1.425972 -3.495197
  H 3.444643 -1.413200 -3.423116
  O 7.077491 -0.910498 -2.302019
  H 0.472099 0.520850 1.296173
  H 0.590886 -0.863295 0.197669
  H 0.614280 0.743354 -0.455190
  H 3.818029 1.436079 1.347547
  H 3.795174 -0.176639 2.006127
  H 1.670394 0.336622 3.230070
  H 1.694601 1.978753 2.559880
  H 2.500231 -0.645616 -1.507737
  H 5.205811 -0.075601 -0.091642
  H 4.881901 -2.433585 -3.711906
  H 4.859300 -0.828928 -4.344339
  H 7.283048 -0.548931 -1.428091
 23
 108.137922
  C 0.804293 0.283084 0.533768
  C 2.263869 0.168379 0.402284
  C 3.182950 0.543444 1.506137
  C 2.554703 1.063572 2.783127
  H 3.340454 1.296084 3.503770
  C 2.737394 -0.318774 -0.787074
  C 4.128829 -0.477702 -1.101743
  C 4.558114 -0.966931 -2.225808
  C 4.714893 -1.523580 -3.470434
  H 3.701902 -1.743858 -3.840880
  O 7.227330 -0.654703 -1.902986
  H 0.498552 0.654833 1.500977
  H 0.335356 -0.684877 0.360145
  H 0.414658 0.941333 -0.239809
  H 3.881158 1.303548 1.132130
  H 3.799039 -0.330162 1.753704
  H 1.900256 0.323738 3.235282
  H 1.988059 1.973552 2.605038
  H 2.031837 -0.614439 -1.549553
  H 4.860010 -0.172948 -0.357460
  H 5.275572 -2.466861 -3.440295
  H 5.207858 -0.845499 -4.179641
  H 7.380213 -0.169777 -1.095788
 23
 105.888517
  C 0.746560 0.311427 0.626818
  C 2.199984 0.166374 0.404410
  C 3.191848 0.530427 1.448463
  C 2.646243 1.062012 2.766265
  H 3.474141 1.286200 3.434410
  C 2.599089 -0.321519 -0.806803
  C 3.959799 -0.532018 -1.189983
  C 4.457657 -0.994552 -2.284979
  C 4.889345 -1.513589 -3.484017
  H 3.993301 -1.830602 -4.042246
  O 6.943140 -0.631440 -1.781616
  H 0.507753 0.704158 1.606703
  H 0.252779 -0.652595 0.502417
  H 0.318358 0.967172 -0.131587
  H 3.870804 1.281851 1.029927
  H 3.804897 -0.352507 1.662110
  H 2.012559 0.329226 3.259691
  H 2.080336 1.979392 2.622100
  H 1.851998 -0.572389 -1.544371
  H 4.723885 -0.272330 -0.458296
  H 5.498177 -2.411417 -3.342501
  H 5.423333 -0.777870 -4.089935
  H 7.414218 -0.184433 -1.079067
