 23
 0.000000
  C 0.971127 0.127468 0.368107
  C 2.476570 0.126414 0.365070
  C 3.249991 0.610495 1.570025
  C 2.440963 1.092700 2.770756
  C 3.365577 1.544784 3.896058
  C 3.113933 -0.312667 -0.728317
  C 4.537232 -0.382513 -0.902645
  C 5.124438 -0.829309 -2.015904
  H 4.575789 -1.176718 -2.881276
  O 6.467150 -0.905647 -2.206412
  H 0.554564 0.500314 1.296497
  H 0.596497 -0.881424 0.208319
  H 0.596322 0.745459 -0.445119
  H 3.900698 1.430241 1.252599
  H 3.900914 -0.201003 1.907822
  H 1.804613 0.285871 3.140941
  H 1.804511 1.931250 2.480055
  H 4.002968 0.724835 4.221473
  H 2.787216 1.888064 4.750889
  H 4.002820 2.362177 3.563833
  H 2.528178 -0.652080 -1.573247
  H 5.164288 -0.053925 -0.084190
  H 6.905026 -0.585397 -1.408542
 23
 -0.322874
  C 0.981457 0.158118 0.359515
  C 2.484689 0.148160 0.358321
  C 3.252094 0.647803 1.560939
  C 2.432582 1.084193 2.773172
  C 3.346692 1.489656 3.924718
  C 3.125644 -0.319804 -0.721923
  C 4.553010 -0.384057 -0.904044
  C 5.125255 -0.845601 -2.017964
  H 4.560829 -1.224194 -2.856818
  O 6.461277 -0.904308 -2.247113
  H 0.572019 0.785398 1.142607
  H 0.599340 -0.853691 0.502768
  H 0.607857 0.516132 -0.598316
  H 3.875872 1.492149 1.248451
  H 3.930884 -0.147661 1.885786
  H 1.790038 0.264463 3.100728
  H 1.800628 1.935807 2.512880
  H 3.979714 0.656656 4.223976
  H 2.760533 1.800119 4.786690
  H 3.988182 2.318194 3.631009
  H 2.540924 -0.674540 -1.560989
  H 5.186002 -0.025446 -0.102568
  H 6.926258 -0.526895 -1.489291
 23
 -0.065756
  C 0.975493 0.196164 0.360791
  C 2.474693 0.107620 0.358525
  C 3.252749 0.625041 1.547472
  C 2.439802 1.078880 2.758290
  C 3.359697 1.460581 3.913384
  C 3.105336 -0.408615 -0.705388
  C 4.533716 -0.452094 -0.881043
  C 5.135713 -0.824010 -2.012313
  H 4.607820 -1.197112 -2.876499
  O 6.476872 -0.774126 -2.217986
  H 0.612650 0.971157 1.026221
  H 0.539551 -0.752601 0.678936
  H 0.610046 0.403759 -0.643062
  H 3.877352 1.463014 1.219895
  H 3.929408 -0.167564 1.882826
  H 1.776357 0.274201 3.080938
  H 1.828925 1.946104 2.500050
  H 3.971265 0.612294 4.214327
  H 2.778255 1.784384 4.773642
  H 4.022115 2.273605 3.622685
  H 2.521202 -0.773040 -1.540011
  H 5.152871 -0.120414 -0.057233
  H 6.881455 -0.337487 -1.456725
 23
 1.545645
  C 0.968329 0.230282 0.357911
  C 2.459904 0.064481 0.345942
  C 3.253754 0.587719 1.523312
  C 2.453971 1.070360 2.732351
  C 3.385066 1.426869 3.886644
  C 3.073980 -0.497068 -0.703762
  C 4.504265 -0.526835 -0.862357
  C 5.151998 -0.776474 -2.001614
  H 4.685333 -1.125908 -2.908992
  O 6.493036 -0.592107 -2.137742
  H 0.662214 1.096211 0.933840
  H 0.488812 -0.649552 0.791160
  H 0.593963 0.339911 -0.658071
  H 3.890107 1.410937 1.181304
  H 3.918149 -0.209813 1.870835
  H 1.765989 0.287529 3.056850
  H 1.869855 1.955379 2.473245
  H 3.960127 0.557757 4.199906
  H 2.814556 1.784292 4.740860
  H 4.081559 2.208414 3.589217
  H 2.489890 -0.857708 -1.539246
  H 5.102623 -0.275608 0.004660
  H 6.783429 -0.124877 -1.342327
 23
 5.659253
  C 0.979820 0.279952 0.347259
  C 2.465663 0.072347 0.328092
  C 3.268034 0.583503 1.503523
  C 2.468716 1.055148 2.717345
  C 3.396548 1.366836 3.886650
  C 3.054959 -0.516405 -0.720036
  C 4.483619 -0.566255 -0.866541
  C 5.158630 -0.773303 -2.001421
  H 4.752206 -1.171609 -2.916951
  O 6.481072 -0.445809 -2.082429
  H 0.714236 1.222197 0.815577
  H 0.486808 -0.521117 0.900753
  H 0.584771 0.274504 -0.666623
  H 3.901388 1.410210 1.163644
  H 3.935480 -0.213824 1.843956
  H 1.760982 0.280627 3.016986
  H 1.903818 1.956506 2.472619
  H 3.944520 0.477538 4.191746
  H 2.827022 1.726434 4.740411
  H 4.117138 2.133852 3.609253
  H 2.462453 -0.857217 -1.557191
  H 5.069095 -0.461429 0.039071
  H 6.624263 0.057009 -1.267860
 23
 13.782874
  C 0.984813 0.273270 0.343310
  C 2.476691 0.125771 0.300221
  C 3.271432 0.639737 1.478485
  C 2.470304 1.071158 2.704688
  C 3.396415 1.334326 3.889871
  C 3.053973 -0.452514 -0.757920
  C 4.477349 -0.506633 -0.895967
  C 5.173885 -0.814134 -2.001465
  H 4.821200 -1.316437 -2.888421
  O 6.500154 -0.471624 -2.012729
  H 0.684890 1.224011 0.777508
  H 0.549308 -0.515188 0.964666
  H 0.560495 0.176709 -0.652735
  H 3.920823 1.461003 1.151956
  H 3.953709 -0.149454 1.807075
  H 1.793366 0.260769 2.979449
  H 1.874227 1.963261 2.496188
  H 3.914346 0.418565 4.179569
  H 2.830041 1.683677 4.746881
  H 4.144914 2.081159 3.638444
  H 2.466777 -0.725349 -1.615762
  H 5.035263 -0.529510 0.038498
  H 6.480507 0.116729 -1.237392
 23
 31.932540
  C 1.013066 0.332976 0.305432
  C 2.497942 0.090987 0.304674
  C 3.306020 0.508955 1.516640
  C 2.492493 0.993882 2.729124
  C 3.421301 1.365864 3.887076
  C 3.065114 -0.460291 -0.769587
  C 4.475646 -0.560588 -0.896278
  C 5.181399 -0.826880 -2.033161
  H 4.862234 -1.346260 -2.910232
  O 6.423562 -0.191219 -2.033617
  H 0.757566 1.270152 0.786251
  H 0.487955 -0.470976 0.841086
  H 0.632383 0.357017 -0.710520
  H 3.946121 1.354344 1.214180
  H 3.938433 -0.330381 1.840295
  H 1.770052 0.241619 3.042414
  H 1.934471 1.892303 2.445164
  H 3.972448 0.495045 4.241772
  H 2.849225 1.771785 4.722058
  H 4.145389 2.119185 3.565827
  H 2.453498 -0.788769 -1.603576
  H 5.013304 -0.717262 0.036973
  H 6.188133 0.215953 -1.175086
 23
 61.033800
  C 1.021498 0.320060 0.302505
  C 2.511969 0.155586 0.298180
  C 3.305113 0.620432 1.496841
  C 2.494296 1.026328 2.726142
  C 3.409646 1.312011 3.910977
  C 3.132577 -0.376327 -0.762275
  C 4.568993 -0.499623 -0.923585
  C 5.219591 -0.911889 -2.090345
  H 4.846371 -1.546898 -2.885364
  O 6.377347 -0.374698 -2.186293
  H 0.726310 1.255194 0.771766
  H 0.547447 -0.493919 0.853662
  H 0.635011 0.304560 -0.714414
  H 3.933619 1.466016 1.195647
  H 3.984280 -0.184747 1.799104
  H 1.803375 0.225077 2.992167
  H 1.909069 1.921873 2.512813
  H 3.964615 0.419331 4.192425
  H 2.830284 1.638788 4.771271
  H 4.124212 2.093709 3.662326
  H 2.549157 -0.669561 -1.625740
  H 5.120920 -0.713815 -0.008836
  H 5.834840 0.285002 -1.056123
 23
 36.326929
  C 1.074227 0.280564 0.282579
  C 2.556333 0.118997 0.318793
  C 3.317520 0.617450 1.524818
  C 2.478281 1.050606 2.717614
  C 3.375522 1.372775 3.910326
  C 3.236700 -0.346939 -0.724266
  C 4.712962 -0.501427 -0.922136
  C 5.248506 -0.866551 -2.242753
  H 4.681407 -1.364842 -3.049124
  O 6.383345 -0.500548 -2.398682
  H 0.756415 1.212437 0.734675
  H 0.611754 -0.530651 0.855759
  H 0.696137 0.207467 -0.736352
  H 3.991538 1.416415 1.231533
  H 3.937809 -0.232869 1.859973
  H 1.757646 0.284448 3.001592
  H 1.948314 1.979961 2.486912
  H 3.928001 0.478401 4.224474
  H 2.782974 1.677162 4.770964
  H 4.104182 2.131213 3.650807
  H 2.690624 -0.573575 -1.630568
  H 5.265597 -0.954417 -0.084071
  H 5.600847 0.262011 -0.917537
 23
 14.316080
  C 1.122144 0.334772 0.259410
  C 2.613032 0.211807 0.293415
  C 3.345657 0.624750 1.531578
  C 2.490706 1.001727 2.734380
  C 3.356341 1.289738 3.950115
  C 3.278951 -0.287426 -0.747519
  C 4.752249 -0.443828 -0.897742
  C 5.240085 -1.023304 -2.185831
  H 4.636448 -1.727612 -2.760523
  O 6.278319 -0.611854 -2.633206
  H 0.799962 1.261825 0.709732
  H 0.642345 -0.496542 0.776409
  H 0.776966 0.349304 -0.771866
  H 3.926512 1.517277 1.269881
  H 4.064990 -0.142590 1.824515
  H 1.828693 0.176227 2.977902
  H 1.862148 1.880349 2.513238
  H 3.919640 0.400611 4.234602
  H 2.738391 1.581071 4.795587
  H 4.051809 2.093817 3.747133
  H 2.708551 -0.613642 -1.614595
  H 5.307940 -0.730190 0.005984
  H 5.349206 0.496074 -1.032470
 23
 6.229287
  C 1.105668 0.303854 0.252116
  C 2.596626 0.231296 0.294837
  C 3.339978 0.717017 1.512014
  C 2.488322 1.044181 2.735896
  C 3.362372 1.282245 3.958037
  C 3.280427 -0.275151 -0.733827
  C 4.747244 -0.443208 -0.894088
  C 5.229339 -0.971142 -2.194630
  H 4.575845 -1.613912 -2.812239
  O 6.314689 -0.621936 -2.577890
  H 0.731484 1.216662 0.704255
  H 0.680672 -0.529001 0.808912
  H 0.750193 0.234505 -0.771805
  H 3.930912 1.592027 1.233908
  H 4.059078 -0.055371 1.795913
  H 1.799441 0.219972 2.934765
  H 1.901626 1.940433 2.540083
  H 3.905935 0.378439 4.217566
  H 2.759711 1.584788 4.810388
  H 4.087793 2.068105 3.759100
  H 2.716732 -0.611793 -1.598334
  H 5.188022 -0.954956 -0.030045
  H 5.334750 0.487168 -0.853653
 23
 1.284398
  C 1.111406 0.304895 0.231541
  C 2.608700 0.213882 0.275548
  C 3.348526 0.699659 1.497632
  C 2.495060 1.000679 2.728350
  C 3.373116 1.322271 3.932605
  C 3.275400 -0.298510 -0.770703
  C 4.758198 -0.445412 -0.867251
  C 5.258986 -0.938440 -2.183440
  H 4.537268 -1.512098 -2.794002
  O 6.353987 -0.702421 -2.583072
  H 0.754225 1.206462 0.720829
  H 0.666944 -0.550354 0.741506
  H 0.759435 0.301725 -0.796900
  H 3.915310 1.597408 1.228085
  H 4.085209 -0.060894 1.776223
  H 1.866454 0.138846 2.959425
  H 1.842866 1.854057 2.534483
  H 3.997810 0.470046 4.192031
  H 2.761069 1.573610 4.795715
  H 4.022972 2.167732 3.716079
  H 2.723913 -0.608815 -1.649073
  H 5.150698 -1.095259 -0.073672
  H 5.270703 0.529204 -0.703003
 23
 1.321176
  C 1.088298 0.333348 0.221366
  C 2.580649 0.190283 0.256985
  C 3.327243 0.726759 1.455811
  C 2.501977 0.930291 2.726099
  C 3.392940 1.354369 3.888417
  C 3.237281 -0.383811 -0.754790
  C 4.722991 -0.479590 -0.816015
  C 5.276136 -0.893793 -2.140643
  H 4.537531 -1.342347 -2.833762
  O 6.423960 -0.774474 -2.454989
  H 0.764804 1.229138 0.740820
  H 0.611072 -0.523835 0.697054
  H 0.736934 0.383316 -0.806886
  H 3.792294 1.680458 1.181331
  H 4.140191 0.036453 1.696375
  H 1.993214 -0.001089 2.982363
  H 1.743002 1.698526 2.572895
  H 4.158652 0.605449 4.080126
  H 2.804270 1.480477 4.794082
  H 3.886609 2.298389 3.666835
  H 2.695057 -0.763476 -1.608765
  H 5.097127 -1.212382 -0.085278
  H 5.180351 0.497832 -0.539977
 23
 0.153788
  C 1.115245 0.350114 0.215504
  C 2.610615 0.247604 0.254149
  C 3.334528 0.779117 1.465543
  C 2.493845 0.896013 2.737095
  C 3.354772 1.322357 3.922161
  C 3.270462 -0.300116 -0.761969
  C 4.758272 -0.459825 -0.836339
  C 5.250346 -0.944443 -2.167676
  H 4.475351 -1.448206 -2.781227
  O 6.375783 -0.837637 -2.567266
  H 0.786437 1.342726 0.512894
  H 0.666643 -0.369456 0.899071
  H 0.743916 0.147216 -0.784756
  H 3.741974 1.766202 1.219946
  H 4.186784 0.129478 1.680967
  H 2.031018 -0.068645 2.957750
  H 1.696757 1.628641 2.599083
  H 4.145093 0.596212 4.104876
  H 2.750618 1.404077 4.823353
  H 3.817162 2.289312 3.730965
  H 2.718592 -0.666485 -1.618379
  H 5.095245 -1.203310 -0.101335
  H 5.273125 0.469345 -0.584955
