 25
 0.000000
  C 1.011885 0.119573 0.349960
  C 2.484885 0.131514 0.379042
  C 3.243668 0.604385 1.554950
  C 2.446822 1.089364 2.761650
  C 3.384342 1.538295 3.878328
  C 3.135032 -0.328686 -0.766195
  C 4.526645 -0.401471 -0.948262
  C 5.151443 -0.856872 -2.084035
  C 4.539231 -1.351499 -3.317835
  H 3.457568 -1.364228 -3.350150
  H 6.232242 -0.865084 -2.104674
  H 0.548002 0.484903 1.258876
  H 0.656994 -0.895535 0.163500
  H 0.656648 0.723036 -0.487145
  H 3.904774 1.416686 1.231486
  H 3.905012 -0.205585 1.883649
  H 1.809288 0.288927 3.141206
  H 1.809159 1.929725 2.481698
  H 4.020359 0.719481 4.207191
  H 2.811760 1.882858 4.735777
  H 4.020194 2.357020 3.548954
  H 2.503028 -0.655798 -1.580055
  H 5.157963 -0.074530 -0.133883
  H 4.918780 -2.359061 -3.505949
  H 4.919151 -0.753223 -4.149884
 25
 4.442380
  C 1.012279 0.102876 0.308574
  C 2.449675 0.124755 0.362402
  C 3.212742 0.597413 1.537632
  C 2.436388 1.087505 2.756778
  C 3.397166 1.529286 3.855900
  C 3.127730 -0.327474 -0.762916
  C 4.508805 -0.391682 -0.923940
  C 5.145566 -0.845143 -2.054964
  C 4.537710 -1.340776 -3.291243
  H 3.454283 -1.343349 -3.298217
  H 6.228411 -0.843997 -2.052336
  H 0.767222 0.484278 1.257332
  H 0.612670 -0.904443 0.147359
  H 0.612379 0.718207 -0.504911
  H 3.876413 1.405061 1.207738
  H 3.876591 -0.213679 1.858540
  H 1.801249 0.291133 3.150648
  H 1.801232 1.934961 2.489843
  H 4.032868 0.705530 4.172650
  H 2.843739 1.878194 4.723990
  H 4.032920 2.343035 3.514423
  H 2.513628 -0.658210 -1.585607
  H 5.133790 -0.063398 -0.106204
  H 4.908032 -2.350024 -3.486923
  H 4.908386 -0.746478 -4.129964
 25
 13.466370
  C 0.963997 0.092899 0.283876
  C 2.408975 0.117664 0.344799
  C 3.172857 0.594980 1.531552
  C 2.423633 1.091024 2.765259
  C 3.416355 1.523051 3.840875
  C 3.121454 -0.330988 -0.771657
  C 4.509300 -0.389245 -0.918887
  C 5.156966 -0.840635 -2.044496
  C 4.558814 -1.337668 -3.283071
  H 3.475006 -1.338569 -3.285571
  H 6.240101 -0.832592 -2.025209
  H 0.944504 0.488163 1.267057
  H 0.533338 -0.922598 0.162660
  H 0.533102 0.741910 -0.506379
  H 3.841475 1.398177 1.196416
  H 3.841574 -0.216650 1.845669
  H 1.792635 0.301164 3.181128
  H 1.793061 1.949300 2.518670
  H 4.051259 0.692560 4.142174
  H 2.887563 1.877421 4.722082
  H 4.051815 2.330591 3.483700
  H 2.519663 -0.665884 -1.604374
  H 5.130594 -0.059223 -0.097437
  H 4.928048 -2.346395 -3.478795
  H 4.928289 -0.744240 -4.121983
 25
 26.220746
  C 0.927144 0.090892 0.278225
  C 2.390143 0.117633 0.344253
  C 3.157381 0.593068 1.526592
  C 2.416956 1.090292 2.763904
  C 3.419479 1.519007 3.831487
  C 3.122759 -0.330810 -0.771701
  C 4.502369 -0.386536 -0.913259
  C 5.159048 -0.838366 -2.039502
  C 4.571041 -1.337835 -3.282444
  H 3.486053 -1.342721 -3.294085
  H 6.243683 -0.827641 -2.014399
  H 1.091305 0.480384 1.247344
  H 0.489476 -0.896949 0.190684
  H 0.489218 0.743564 -0.468456
  H 3.824746 1.392765 1.188924
  H 3.824920 -0.217748 1.836223
  H 1.786166 0.302380 3.186163
  H 1.786425 1.951554 2.523632
  H 4.053979 0.686713 4.127806
  H 2.898157 1.874769 4.716540
  H 4.054479 2.324652 3.469594
  H 2.528863 -0.666563 -1.605961
  H 5.118380 -0.055938 -0.091422
  H 4.945413 -2.346453 -3.474605
  H 4.945141 -0.742546 -4.119107
 25
 40.950625
  C 0.893381 0.089712 0.275166
  C 2.372513 0.117273 0.343458
  C 3.153300 0.590235 1.519652
  C 2.415319 1.090539 2.764432
  C 3.424296 1.518108 3.829238
  C 3.117065 -0.329411 -0.768041
  C 4.504089 -0.383433 -0.905657
  C 5.163763 -0.834094 -2.028995
  C 4.578868 -1.336246 -3.278429
  H 3.495759 -1.343133 -3.294920
  H 6.246725 -0.822340 -2.001461
  H 1.197497 0.462975 1.204079
  H 0.448611 -0.890631 0.212008
  H 0.448307 0.753973 -0.448331
  H 3.821945 1.389205 1.176409
  H 3.822061 -0.223944 1.824785
  H 1.785731 0.306228 3.187874
  H 1.786125 1.949983 2.527483
  H 4.058344 0.685126 4.122946
  H 2.907483 1.874697 4.716221
  H 4.058894 2.322331 3.464990
  H 2.525673 -0.667825 -1.608699
  H 5.117056 -0.052381 -0.082933
  H 4.955666 -2.344636 -3.469636
  H 4.955334 -0.740487 -4.114308
 25
 53.728947
  C 0.883243 0.078735 0.246847
  C 2.375787 0.115410 0.343086
  C 3.161858 0.593268 1.530074
  C 2.419412 1.095094 2.774042
  C 3.420775 1.524183 3.843779
  C 3.106470 -0.331587 -0.766767
  C 4.505948 -0.386441 -0.913972
  C 5.156161 -0.835768 -2.035933
  C 4.570015 -1.332904 -3.270920
  H 3.485517 -1.339050 -3.283326
  H 6.240026 -0.825234 -2.013633
  H 1.285789 0.444874 1.163226
  H 0.453653 -0.905840 0.186768
  H 0.452570 0.752902 -0.472866
  H 3.830127 1.392416 1.188066
  H 3.828578 -0.220996 1.837506
  H 1.783758 0.306700 3.195670
  H 1.785928 1.957276 2.531466
  H 4.054335 0.691741 4.141867
  H 2.898444 1.880904 4.728026
  H 4.056790 2.329312 3.482645
  H 2.513284 -0.667722 -1.598253
  H 5.127661 -0.054205 -0.092665
  H 4.945433 -2.338758 -3.462607
  H 4.943660 -0.738995 -4.105774
 25
 63.705111
  C 0.890855 0.082788 0.248898
  C 2.410894 0.105837 0.357347
  C 3.196957 0.586131 1.535696
  C 2.418121 1.098326 2.756279
  C 3.389543 1.531802 3.854874
  C 3.112040 -0.352972 -0.752574
  C 4.512339 -0.384415 -0.914609
  C 5.152431 -0.827989 -2.038533
  C 4.554675 -1.334306 -3.286647
  H 3.468211 -1.341117 -3.291391
  H 6.236984 -0.817389 -2.023052
  H 1.385728 0.425056 1.144878
  H 0.472711 -0.908729 0.184988
  H 0.439480 0.801989 -0.412183
  H 3.875054 1.384828 1.200757
  H 3.852150 -0.235396 1.856415
  H 1.772294 0.314411 3.160867
  H 1.796289 1.956348 2.492556
  H 4.013390 0.700073 4.174966
  H 2.843175 1.892883 4.720846
  H 4.037193 2.334116 3.508864
  H 2.514048 -0.703656 -1.586084
  H 5.130453 -0.039139 -0.099569
  H 4.929437 -2.345147 -3.479630
  H 4.919765 -0.734647 -4.127737
 25
 69.291932
  C 0.899470 0.069831 0.207720
  C 2.441585 0.087733 0.361699
  C 3.233576 0.583067 1.555929
  C 2.425202 1.117244 2.760013
  C 3.371282 1.548357 3.885877
  C 3.106728 -0.386734 -0.741394
  C 4.510787 -0.386430 -0.928823
  C 5.137599 -0.824365 -2.058353
  C 4.537595 -1.331260 -3.294399
  H 3.464047 -1.338006 -3.291659
  H 6.216318 -0.815492 -2.054005
  H 1.449318 0.388177 1.101415
  H 0.518144 -0.928962 0.095072
  H 0.417736 0.830704 -0.374776
  H 3.925819 1.378738 1.234414
  H 3.870569 -0.251108 1.889576
  H 1.760674 0.340400 3.151325
  H 1.819571 1.980003 2.474721
  H 3.977195 0.713516 4.226159
  H 2.804914 1.920886 4.737166
  H 4.035333 2.340992 3.553656
  H 2.509593 -0.753408 -1.558729
  H 5.128646 -0.020309 -0.123250
  H 4.908119 -2.333719 -3.484848
  H 4.887447 -0.731777 -4.130120
 25
 72.935687
  C 0.899787 0.067268 0.181126
  C 2.464900 0.075725 0.384861
  C 3.252532 0.580166 1.574557
  C 2.432938 1.117290 2.751528
  C 3.360494 1.558743 3.884200
  C 3.111082 -0.405610 -0.721656
  C 4.523380 -0.391782 -0.925327
  C 5.135215 -0.818654 -2.054384
  C 4.522137 -1.325572 -3.293885
  H 3.424741 -1.335422 -3.278769
  H 6.222355 -0.801809 -2.062811
  H 1.496111 0.339354 1.090852
  H 0.527972 -0.925854 0.007764
  H 0.411952 0.879736 -0.325388
  H 3.939502 1.370065 1.252630
  H 3.878661 -0.247949 1.921156
  H 1.762048 0.338944 3.140588
  H 1.827959 1.979367 2.444582
  H 3.964028 0.726207 4.240468
  H 2.782547 1.936778 4.722249
  H 4.029279 2.350846 3.553655
  H 2.512957 -0.786373 -1.531101
  H 5.146183 -0.018355 -0.120663
  H 4.896285 -2.335578 -3.492923
  H 4.861381 -0.712542 -4.136497
 25
 75.704599
  C 0.896235 0.063165 0.146777
  C 2.476798 0.059576 0.395372
  C 3.268901 0.575849 1.589351
  C 2.438990 1.121448 2.753965
  C 3.358255 1.575439 3.896413
  C 3.110467 -0.425454 -0.709244
  C 4.517184 -0.394819 -0.922069
  C 5.127258 -0.814346 -2.058735
  C 4.513223 -1.320314 -3.294865
  H 3.429824 -1.335728 -3.274065
  H 6.209924 -0.791644 -2.073131
  H 1.528591 0.280708 1.069307
  H 0.528321 -0.916707 -0.081389
  H 0.416588 0.919751 -0.284614
  H 3.956739 1.367127 1.260863
  H 3.892596 -0.254280 1.948473
  H 1.766264 0.348145 3.139781
  H 1.838041 1.976639 2.432107
  H 3.960105 0.746083 4.266117
  H 2.770295 1.961236 4.728534
  H 4.030762 2.366145 3.565697
  H 2.505014 -0.824953 -1.526352
  H 5.134919 -0.014487 -0.126615
  H 4.888846 -2.325096 -3.497062
  H 4.842542 -0.703371 -4.134322
 25
 77.838802
  C 0.893087 0.069621 0.131628
  C 2.483113 0.047425 0.409839
  C 3.275043 0.572508 1.598643
  C 2.441462 1.123934 2.753756
  C 3.353884 1.585991 3.891166
  C 3.113477 -0.440279 -0.698857
  C 4.522301 -0.400011 -0.921085
  C 5.126810 -0.810521 -2.058286
  C 4.507683 -1.316462 -3.298285
  H 3.428300 -1.336009 -3.273535
  H 6.207459 -0.783955 -2.076842
  H 1.559989 0.225128 1.063683
  H 0.520858 -0.896359 -0.151258
  H 0.419525 0.962141 -0.219410
  H 3.957576 1.361140 1.264860
  H 3.897900 -0.256459 1.964662
  H 1.762662 0.347169 3.145629
  H 1.836859 1.981626 2.419357
  H 3.952447 0.764409 4.267224
  H 2.768337 1.974030 4.711004
  H 4.023090 2.370644 3.557972
  H 2.513207 -0.842583 -1.502294
  H 5.145608 -0.012744 -0.127429
  H 4.885803 -2.321485 -3.505915
  H 4.831361 -0.694042 -4.137874
 25
 79.637569
  C 0.886352 0.076384 0.113737
  C 2.483664 0.034744 0.415116
  C 3.279861 0.569259 1.600169
  C 2.441960 1.126832 2.756947
  C 3.353884 1.597519 3.891906
  C 3.115259 -0.450965 -0.695663
  C 4.521360 -0.404789 -0.917963
  C 5.127280 -0.808559 -2.058350
  C 4.508499 -1.313840 -3.297953
  H 3.424999 -1.338948 -3.271028
  H 6.207497 -0.776068 -2.078577
  H 1.584357 0.169789 1.056044
  H 0.512055 -0.871575 -0.218732
  H 0.416528 0.997408 -0.158643
  H 3.957292 1.356667 1.260083
  H 3.900699 -0.252896 1.965441
  H 1.767319 0.355303 3.152268
  H 1.837439 1.978887 2.418238
  H 3.954710 0.778583 4.272922
  H 2.766870 1.989657 4.710902
  H 4.022026 2.382268 3.553677
  H 2.514581 -0.857027 -1.498304
  H 5.146092 -0.016032 -0.124382
  H 4.890252 -2.317033 -3.510101
  H 4.827309 -0.686731 -4.136769
 25
 80.832919
  C 0.887342 0.088560 0.103515
  C 2.490822 0.023547 0.423237
  C 3.284722 0.567816 1.607795
  C 2.443411 1.129906 2.756926
  C 3.346574 1.605805 3.889706
  C 3.120275 -0.461613 -0.690889
  C 4.524129 -0.401235 -0.922647
  C 5.127788 -0.804132 -2.064201
  C 4.506016 -1.312647 -3.302643
  H 3.428447 -1.334929 -3.275079
  H 6.208431 -0.782929 -2.082686
  H 1.614064 0.118193 1.056719
  H 0.505319 -0.839308 -0.271848
  H 0.415690 1.027148 -0.091827
  H 3.960588 1.355423 1.263587
  H 3.905776 -0.252836 1.979591
  H 1.767591 0.361985 3.152797
  H 1.841298 1.977958 2.411227
  H 3.945345 0.790296 4.276886
  H 2.756327 2.001300 4.702742
  H 4.014645 2.388000 3.550368
  H 2.519492 -0.865379 -1.489959
  H 5.148249 0.000087 -0.138253
  H 4.884372 -2.315479 -3.511002
  H 4.825085 -0.690848 -4.141600
 25
 81.972653
  C 0.883712 0.105948 0.089349
  C 2.495546 0.020339 0.421220
  C 3.290507 0.571613 1.608204
  C 2.444369 1.130236 2.759960
  C 3.345072 1.612421 3.894845
  C 3.121308 -0.461583 -0.695893
  C 4.520838 -0.397638 -0.926375
  C 5.128303 -0.803912 -2.068873
  C 4.509060 -1.316597 -3.300266
  H 3.426708 -1.339657 -3.271743
  H 6.208752 -0.786071 -2.086026
  H 1.638991 0.071020 1.050993
  H 0.495320 -0.802248 -0.325769
  H 0.406161 1.051580 -0.030764
  H 3.960503 1.364145 1.262825
  H 3.914500 -0.242008 1.977047
  H 1.777815 0.363865 3.153478
  H 1.838843 1.970112 2.415435
  H 3.948663 0.802044 4.281963
  H 2.752289 2.004771 4.707302
  H 4.007098 2.397740 3.555731
  H 2.516532 -0.868427 -1.499472
  H 5.143907 0.009544 -0.140732
  H 4.888717 -2.320764 -3.502678
  H 4.828653 -0.698041 -4.142804
