 23
 0.000000
  C 1.002894 0.134978 0.374227
  C 2.475034 0.147150 0.412795
  C 3.225666 0.623006 1.595294
  C 2.422126 1.102025 2.801065
  C 3.356243 1.551654 3.920695
  C 3.139978 -0.310621 -0.721644
  C 4.525129 -0.379112 -0.891988
  C 5.096102 -0.847339 -2.055608
  H 4.506989 -1.188791 -2.898097
  O 6.371989 -0.935866 -2.284679
  H 0.546234 0.508237 1.282552
  H 0.640280 -0.878998 0.195697
  H 0.649587 0.727624 -0.471112
  H 3.884532 1.439639 1.277925
  H 3.890497 -0.183048 1.926756
  H 1.787339 0.297068 3.175290
  H 1.782462 1.940296 2.519817
  H 3.994241 0.734123 4.248733
  H 2.781486 1.892177 4.778373
  H 3.989433 2.373622 3.594389
  H 2.526114 -0.643116 -1.547816
  H 5.176858 -0.056279 -0.092179
  H 6.939584 -0.634236 -1.547353
 23
 3.318427
  C 1.009086 0.184560 0.373973
  C 2.458753 0.156789 0.415667
  C 3.215022 0.627885 1.597928
  C 2.410934 1.093234 2.806614
  C 3.343518 1.547236 3.925266
  C 3.131089 -0.306886 -0.713730
  C 4.529435 -0.379865 -0.879202
  C 5.092214 -0.858531 -2.057146
  H 4.467339 -1.192096 -2.878735
  O 6.361935 -0.962592 -2.312538
  H 0.524345 0.530328 1.271605
  H 0.855218 -0.862099 0.202589
  H 0.620750 0.720728 -0.487962
  H 3.861931 1.452120 1.277638
  H 3.894179 -0.167163 1.923031
  H 1.787186 0.279550 3.180372
  H 1.762679 1.927149 2.533029
  H 3.991378 0.734796 4.247163
  H 2.768374 1.877653 4.786653
  H 3.966924 2.377452 3.600638
  H 2.524286 -0.641558 -1.546202
  H 5.184737 -0.056967 -0.081079
  H 6.949713 -0.665800 -1.588115
 23
 8.843972
  C 1.004610 0.235045 0.361278
  C 2.456007 0.184235 0.414839
  C 3.217733 0.633208 1.586834
  C 2.409067 1.081653 2.806004
  C 3.341833 1.534359 3.930462
  C 3.135658 -0.296413 -0.719160
  C 4.515264 -0.380954 -0.876810
  C 5.071758 -0.863177 -2.042869
  H 4.445310 -1.192555 -2.860819
  O 6.340437 -0.978280 -2.295907
  H 0.493227 0.587312 1.250885
  H 1.048368 -0.845685 0.267232
  H 0.588336 0.648224 -0.534912
  H 3.844512 1.475127 1.259493
  H 3.915327 -0.152892 1.899864
  H 1.794995 0.257667 3.172517
  H 1.752939 1.911578 2.542347
  H 3.998297 0.725845 4.242419
  H 2.765941 1.850242 4.796378
  H 3.956228 2.373458 3.613203
  H 2.534510 -0.626241 -1.555829
  H 5.167714 -0.060036 -0.080668
  H 6.922751 -0.684985 -1.574568
 23
 15.219536
  C 0.995234 0.263062 0.348711
  C 2.446503 0.188828 0.399364
  C 3.217391 0.635229 1.587938
  C 2.409958 1.078120 2.812473
  C 3.344213 1.523022 3.936691
  C 3.120334 -0.293689 -0.727860
  C 4.506570 -0.380799 -0.882175
  C 5.068053 -0.867138 -2.043985
  H 4.446976 -1.198976 -2.865387
  O 6.340608 -0.984857 -2.290487
  H 0.478191 0.645219 1.214831
  H 1.188134 -0.808855 0.351791
  H 0.545845 0.568702 -0.584488
  H 3.835485 1.483013 1.257929
  H 3.919369 -0.149108 1.898408
  H 1.795710 0.253245 3.175937
  H 1.755216 1.910715 2.554838
  H 4.000207 0.712079 4.242725
  H 2.770352 1.834883 4.805415
  H 3.959029 2.362736 3.622816
  H 2.519631 -0.619013 -1.566175
  H 5.158471 -0.057686 -0.083002
  H 6.920153 -0.687638 -1.561176
 23
 21.607316
  C 0.987158 0.294006 0.353566
  C 2.447626 0.185547 0.397531
  C 3.214884 0.634628 1.591605
  C 2.409722 1.070894 2.809586
  C 3.341383 1.515123 3.930995
  C 3.119613 -0.299941 -0.731311
  C 4.505212 -0.384392 -0.885589
  C 5.066165 -0.870749 -2.041433
  H 4.445270 -1.207237 -2.864428
  O 6.341992 -0.986461 -2.287102
  H 0.462800 0.682388 1.206292
  H 1.306241 -0.788588 0.387576
  H 0.517709 0.558264 -0.583287
  H 3.824856 1.481496 1.265294
  H 3.916927 -0.142615 1.900975
  H 1.797763 0.243537 3.172078
  H 1.753214 1.902899 2.552891
  H 3.999957 0.704307 4.235575
  H 2.766754 1.824438 4.800551
  H 3.954508 2.357339 3.617490
  H 2.517368 -0.627256 -1.569309
  H 5.155952 -0.057626 -0.087622
  H 6.918043 -0.686555 -1.559993
 23
 26.035069
  C 0.994279 0.322564 0.346450
  C 2.430339 0.183151 0.389108
  C 3.214104 0.627624 1.583860
  C 2.402186 1.071861 2.814961
  C 3.339782 1.510468 3.945378
  C 3.112964 -0.302648 -0.742692
  C 4.497544 -0.385611 -0.892211
  C 5.071014 -0.874903 -2.055758
  H 4.461664 -1.212937 -2.882023
  O 6.349771 -0.986935 -2.294669
  H 0.464692 0.735908 1.193718
  H 1.390216 -0.748472 0.465533
  H 0.504899 0.476673 -0.597903
  H 3.826471 1.480080 1.250413
  H 3.916536 -0.160789 1.890591
  H 1.781538 0.247913 3.177815
  H 1.751902 1.910928 2.558723
  H 3.991220 0.694991 4.249751
  H 2.766895 1.823897 4.815726
  H 3.960087 2.348152 3.634431
  H 2.515037 -0.625861 -1.580871
  H 5.146793 -0.057155 -0.089976
  H 6.915524 -0.682993 -1.560833
 23
 28.560424
  C 0.987056 0.345605 0.350494
  C 2.421985 0.180066 0.393530
  C 3.204380 0.623284 1.578692
  C 2.406380 1.069924 2.800960
  C 3.348077 1.491172 3.920510
  C 3.105333 -0.301364 -0.743147
  C 4.500177 -0.385729 -0.890282
  C 5.069788 -0.862281 -2.036028
  H 4.461336 -1.197657 -2.869854
  O 6.357655 -0.971926 -2.269367
  H 0.463461 0.783930 1.186024
  H 1.452514 -0.718163 0.557039
  H 0.483181 0.406360 -0.605149
  H 3.816366 1.467086 1.242444
  H 3.896434 -0.164679 1.883975
  H 1.779920 0.256947 3.163444
  H 1.769935 1.915436 2.550480
  H 3.989730 0.667559 4.220274
  H 2.783138 1.809537 4.791306
  H 3.976789 2.319753 3.608095
  H 2.502649 -0.619862 -1.587361
  H 5.147650 -0.062430 -0.086433
  H 6.922463 -0.666173 -1.522653
 23
 30.659117
  C 0.989210 0.356658 0.333067
  C 2.420752 0.172395 0.388532
  C 3.208149 0.624279 1.588075
  C 2.405961 1.074958 2.805120
  C 3.348125 1.488087 3.936817
  C 3.110949 -0.307006 -0.751467
  C 4.490288 -0.387289 -0.894228
  C 5.071381 -0.865695 -2.054293
  H 4.469088 -1.199637 -2.885849
  O 6.354802 -0.970893 -2.284617
  H 0.467338 0.817630 1.149368
  H 1.511816 -0.696185 0.612469
  H 0.481006 0.337639 -0.620556
  H 3.822802 1.462491 1.257812
  H 3.891012 -0.164300 1.897540
  H 1.765322 0.259925 3.165145
  H 1.773579 1.935020 2.549654
  H 3.983214 0.655505 4.240947
  H 2.778102 1.811275 4.807854
  H 3.989187 2.315339 3.628521
  H 2.515200 -0.621076 -1.590335
  H 5.134751 -0.063156 -0.087186
  H 6.910863 -0.666319 -1.540822
 23
 32.536979
  C 0.994799 0.367574 0.333412
  C 2.418436 0.165204 0.390207
  C 3.211830 0.617598 1.579249
  C 2.404271 1.076307 2.799824
  C 3.346296 1.481234 3.936650
  C 3.104967 -0.310753 -0.752208
  C 4.497641 -0.391940 -0.897747
  C 5.070488 -0.858367 -2.044190
  H 4.462462 -1.192128 -2.883509
  O 6.362200 -0.960783 -2.275840
  H 0.470386 0.847783 1.149386
  H 1.558140 -0.668726 0.658331
  H 0.475544 0.289284 -0.612062
  H 3.836395 1.458057 1.245239
  H 3.891053 -0.179959 1.889892
  H 1.754276 0.266692 3.157986
  H 1.780152 1.942492 2.541956
  H 3.972292 0.643552 4.242911
  H 2.775477 1.809545 4.805860
  H 3.995804 2.302250 3.631176
  H 2.502179 -0.623745 -1.594686
  H 5.144950 -0.070438 -0.089535
  H 6.914669 -0.658823 -1.533672
 23
 33.876955
  C 0.983148 0.377170 0.326183
  C 2.417785 0.154009 0.397092
  C 3.215817 0.617119 1.586571
  C 2.410223 1.083876 2.798094
  C 3.348500 1.477578 3.938577
  C 3.108358 -0.314634 -0.755684
  C 4.493095 -0.397430 -0.895806
  C 5.075161 -0.851659 -2.053670
  H 4.479128 -1.171186 -2.891881
  O 6.366141 -0.952363 -2.280746
  H 0.456609 0.865216 1.122818
  H 1.590537 -0.660335 0.703556
  H 0.461788 0.235567 -0.604637
  H 3.840442 1.446748 1.252023
  H 3.888567 -0.184320 1.904069
  H 1.752923 0.288774 3.150241
  H 1.802930 1.950133 2.538213
  H 3.962571 0.631958 4.249549
  H 2.777899 1.813340 4.802157
  H 4.009354 2.289113 3.636491
  H 2.509400 -0.618826 -1.599773
  H 5.133128 -0.089428 -0.085209
  H 6.915045 -0.659529 -1.530964
 23
 35.754530
  C 0.985580 0.381456 0.316115
  C 2.414705 0.144713 0.399576
  C 3.217460 0.617072 1.594240
  C 2.415695 1.085732 2.797478
  C 3.354195 1.474987 3.942153
  C 3.108108 -0.319654 -0.755682
  C 4.489699 -0.400956 -0.891652
  C 5.077000 -0.849821 -2.053324
  H 4.478577 -1.167238 -2.902456
  O 6.367922 -0.946713 -2.277037
  H 0.452829 0.871441 1.111504
  H 1.626191 -0.654828 0.716487
  H 0.469388 0.211552 -0.605204
  H 3.838531 1.438961 1.262019
  H 3.886157 -0.180262 1.913323
  H 1.749856 0.291154 3.149484
  H 1.811903 1.958209 2.534584
  H 3.959614 0.630284 4.253989
  H 2.785958 1.813262 4.800618
  H 4.018555 2.279396 3.643213
  H 2.506104 -0.622657 -1.606269
  H 5.131615 -0.094555 -0.072227
  H 6.911159 -0.658080 -1.527625
 23
 37.461254
  C 0.990816 0.392829 0.314225
  C 2.413949 0.136147 0.400610
  C 3.219322 0.612444 1.587631
  C 2.410880 1.084748 2.798354
  C 3.352842 1.475419 3.951628
  C 3.106550 -0.326365 -0.756422
  C 4.494149 -0.407763 -0.895791
  C 5.076269 -0.852455 -2.051452
  H 4.484215 -1.164439 -2.891142
  O 6.369547 -0.945271 -2.278517
  H 0.458681 0.881652 1.115711
  H 1.663467 -0.659773 0.728373
  H 0.468242 0.206957 -0.610405
  H 3.843104 1.439944 1.251936
  H 3.893446 -0.188572 1.908659
  H 1.745003 0.292644 3.148073
  H 1.809418 1.955833 2.534571
  H 3.962996 0.621604 4.268111
  H 2.778724 1.817420 4.816600
  H 4.024598 2.286170 3.651547
  H 2.505293 -0.626458 -1.599663
  H 5.132856 -0.104184 -0.084527
  H 6.915068 -0.655068 -1.527924
 23
 38.776061
  C 0.989717 0.406267 0.313824
  C 2.417755 0.128545 0.412234
  C 3.223979 0.611847 1.595477
  C 2.416584 1.084988 2.804018
  C 3.353153 1.472682 3.949029
  C 3.116854 -0.331313 -0.755277
  C 4.491186 -0.409977 -0.890304
  C 5.078399 -0.851900 -2.053875
  H 4.480312 -1.166755 -2.907348
  O 6.366717 -0.943425 -2.277145
  H 0.461741 0.880361 1.105983
  H 1.695314 -0.668128 0.742600
  H 0.465848 0.208623 -0.608414
  H 3.845045 1.438441 1.255769
  H 3.896598 -0.187286 1.917586
  H 1.751761 0.296538 3.154004
  H 1.817380 1.954955 2.541029
  H 3.954120 0.629435 4.261931
  H 2.787777 1.811493 4.801412
  H 4.016828 2.271063 3.651847
  H 2.517471 -0.629651 -1.602135
  H 5.133703 -0.106670 -0.067076
  H 6.914328 -0.654477 -1.519512
 23
 40.154127
  C 0.988683 0.417690 0.302332
  C 2.418160 0.113655 0.416341
  C 3.230274 0.607734 1.603469
  C 2.422607 1.085470 2.807353
  C 3.353647 1.469697 3.946789
  C 3.116194 -0.341185 -0.749795
  C 4.495859 -0.423040 -0.884701
  C 5.083088 -0.858582 -2.049930
  H 4.487815 -1.157904 -2.903305
  O 6.372692 -0.932863 -2.280539
  H 0.451947 0.893431 1.105869
  H 1.723369 -0.685042 0.749826
  H 0.470143 0.211850 -0.609595
  H 3.853781 1.434758 1.259422
  H 3.898096 -0.187639 1.929265
  H 1.752326 0.297579 3.160265
  H 1.826159 1.961135 2.541688
  H 3.954140 0.617183 4.263467
  H 2.779533 1.817225 4.807994
  H 4.027246 2.272051 3.644017
  H 2.514706 -0.635673 -1.599705
  H 5.133712 -0.122846 -0.068366
  H 6.918734 -0.643504 -1.527515
