 25
 0.000000
  C 0.929540 0.053602 0.286537
  C 2.416553 0.058615 0.070704
  C 3.230726 -0.015015 1.339644
  H 2.624083 -0.063006 2.237868
  C 3.004650 0.124633 -1.138276
  C 2.351716 0.202820 -2.504770
  C 0.838723 0.213667 -2.709659
  C 0.517942 0.298996 -4.199968
  C 4.465086 0.133228 -1.235041
  C 5.200454 0.200923 -2.339604
  H 6.278190 0.201924 -2.313684
  H 0.679431 -0.007128 1.344042
  H 0.466003 -0.804165 -0.193948
  H 0.477750 0.966606 -0.093376
  H 3.874848 0.861083 1.424340
  H 3.868634 -0.899627 1.325892
  H 2.740692 -0.644541 -3.080303
  H 2.739775 1.110785 -2.979649
  H 0.387806 1.072796 -2.214678
  H 0.388969 -0.697131 -2.316270
  H 0.930460 1.207932 -4.633427
  H -0.559088 0.307128 -4.353870
  H 0.931603 -0.553824 -4.734562
  H 5.007976 0.078357 -0.303488
  H 4.810132 0.260069 -3.341836
 25
 -0.389979
  C 0.936939 0.145536 0.306943
  C 2.416426 0.058820 0.058469
  C 3.229635 -0.145122 1.316713
  H 2.577938 -0.280396 2.175713
  C 3.004346 0.167083 -1.152634
  C 2.353160 0.273252 -2.518388
  C 0.839853 0.236122 -2.714813
  C 0.512721 0.226040 -4.206207
  C 4.466638 0.164514 -1.243139
  C 5.209754 0.255189 -2.339926
  H 6.285118 0.261011 -2.273837
  H 0.742869 0.325765 1.361840
  H 0.434316 -0.781160 0.033758
  H 0.492660 0.960564 -0.253933
  H 3.869385 0.713746 1.518847
  H 3.861565 -1.028745 1.237996
  H 2.764133 -0.558424 -3.101779
  H 2.723196 1.194638 -2.980879
  H 0.368214 1.112101 -2.270476
  H 0.418832 -0.659417 -2.258874
  H 0.908674 1.115812 -4.691842
  H -0.564004 0.203578 -4.359702
  H 0.945060 -0.647764 -4.689772
  H 4.995565 0.099541 -0.304976
  H 4.813602 0.326858 -3.337269
 25
 0.074208
  C 0.955548 0.269309 0.327171
  C 2.414126 0.040620 0.054936
  C 3.208042 -0.303704 1.291611
  H 2.538579 -0.473212 2.131221
  C 2.999110 0.205194 -1.145885
  C 2.345813 0.317704 -2.510588
  C 0.837050 0.206008 -2.716404
  C 0.522870 0.150129 -4.209635
  C 4.460032 0.203601 -1.238574
  C 5.207196 0.324402 -2.332427
  H 6.281869 0.349424 -2.259733
  H 0.840099 0.683148 1.328370
  H 0.379627 -0.653974 0.280187
  H 0.551435 0.988969 -0.372537
  H 3.890918 0.498942 1.569887
  H 3.793511 -1.209151 1.138840
  H 2.792247 -0.495285 -3.094230
  H 2.680231 1.254260 -2.969195
  H 0.314179 1.065090 -2.297041
  H 0.459152 -0.700064 -2.241762
  H 0.881143 1.047690 -4.709859
  H -0.550337 0.074810 -4.370233
  H 0.999035 -0.711863 -4.672644
  H 4.984080 0.131958 -0.297024
  H 4.811601 0.404877 -3.329414
 25
 2.303672
  C 0.994493 0.447797 0.343622
  C 2.407374 0.040816 0.051868
  C 3.155359 -0.477135 1.252695
  H 2.462286 -0.648788 2.072692
  C 2.997393 0.258442 -1.138785
  C 2.339535 0.350224 -2.504923
  C 0.844406 0.115227 -2.712120
  C 0.532565 0.066680 -4.206017
  C 4.456567 0.259339 -1.234143
  C 5.205114 0.421387 -2.321679
  H 6.278397 0.471022 -2.244074
  H 1.002914 1.052908 1.252501
  H 0.324321 -0.393066 0.508150
  H 0.645096 1.087966 -0.455308
  H 3.913879 0.223551 1.602421
  H 3.651083 -1.417424 1.016673
  H 2.842619 -0.432893 -3.082542
  H 2.606570 1.305458 -2.968981
  H 0.241196 0.908363 -2.273098
  H 0.553113 -0.832101 -2.255215
  H 0.811980 1.003014 -4.684932
  H -0.530630 -0.096039 -4.367810
  H 1.079562 -0.740045 -4.689847
  H 4.976704 0.179118 -0.289920
  H 4.809500 0.518335 -3.317193
 25
 7.349010
  C 1.066958 0.671198 0.343259
  C 2.402407 0.062583 0.043832
  C 3.050234 -0.680924 1.179349
  H 2.327972 -0.831688 1.977814
  C 3.009645 0.315973 -1.141133
  C 2.346836 0.356045 -2.510865
  C 0.863734 0.027125 -2.683369
  C 0.524534 -0.067144 -4.168937
  C 4.467775 0.320167 -1.226866
  C 5.218975 0.587090 -2.294639
  H 6.289631 0.674853 -2.205529
  H 1.226441 1.389927 1.153029
  H 0.298159 -0.026171 0.660999
  H 0.790964 1.268851 -0.516774
  H 3.906427 -0.154691 1.603031
  H 3.400270 -1.651084 0.831627
  H 2.887090 -0.416544 -3.067063
  H 2.554800 1.309690 -3.009847
  H 0.214684 0.777396 -2.236928
  H 0.650768 -0.930889 -2.205820
  H 0.728206 0.877922 -4.668167
  H -0.528589 -0.304874 -4.304414
  H 1.114798 -0.843550 -4.652654
  H 4.979868 0.196566 -0.282062
  H 4.821420 0.745916 -3.281140
 25
 17.310234
  C 1.112615 0.781748 0.309143
  C 2.408485 0.079469 0.040422
  C 2.955919 -0.853838 1.071072
  H 2.278829 -0.911765 1.918941
  C 3.022598 0.405471 -1.119833
  C 2.367119 0.347824 -2.494988
  C 0.884589 0.001527 -2.631535
  C 0.521920 -0.182882 -4.101694
  C 4.473618 0.490023 -1.192585
  C 5.227270 0.703566 -2.273643
  H 6.289307 0.867713 -2.183997
  H 1.338929 1.561948 1.050215
  H 0.287517 0.192949 0.689637
  H 0.957356 1.398355 -0.578835
  H 3.934908 -0.553916 1.446228
  H 3.071596 -1.842149 0.632262
  H 2.917459 -0.460759 -2.986957
  H 2.569515 1.259933 -3.067964
  H 0.246522 0.784102 -2.220843
  H 0.672156 -0.916109 -2.082327
  H 0.705918 0.732208 -4.660119
  H -0.529339 -0.441724 -4.204950
  H 1.114441 -0.980533 -4.548470
  H 4.972674 0.496783 -0.230359
  H 4.838233 0.710487 -3.273704
 25
 32.109583
  C 1.171056 0.918073 0.285657
  C 2.423756 0.154992 0.069169
  C 2.892169 -0.898370 1.013561
  H 2.130896 -1.087081 1.764017
  C 3.019558 0.520744 -1.101427
  C 2.381662 0.303676 -2.478046
  C 0.912670 -0.120763 -2.584955
  C 0.500623 -0.239423 -4.049933
  C 4.474031 0.553409 -1.186500
  C 5.222242 0.768479 -2.263610
  H 6.296899 0.780672 -2.197982
  H 1.379869 1.781748 0.936726
  H 0.319038 0.371694 0.658019
  H 1.165897 1.485260 -0.675223
  H 3.809273 -0.623358 1.541895
  H 3.098619 -1.813458 0.461152
  H 2.987691 -0.485685 -2.918626
  H 2.496381 1.215340 -3.083412
  H 0.262075 0.623004 -2.124353
  H 0.742459 -1.057399 -2.059827
  H 0.655900 0.702962 -4.565572
  H -0.550965 -0.508762 -4.132016
  H 1.088929 -1.000649 -4.557294
  H 4.983511 0.447323 -0.235768
  H 4.813038 0.872990 -3.254205
 25
 55.206427
  C 1.287616 1.023756 0.257975
  C 2.374352 0.050155 0.041507
  C 2.757690 -1.079939 0.938297
  H 2.043044 -1.179545 1.761062
  C 3.024318 0.477314 -1.119876
  C 2.390948 0.272322 -2.487529
  C 0.909558 -0.107779 -2.540403
  C 0.464659 -0.313940 -3.989136
  C 4.461040 0.656882 -1.146936
  C 5.239137 0.880427 -2.219298
  H 6.275650 1.156518 -2.106789
  H 1.587689 1.915792 0.810222
  H 0.329288 0.661170 0.618814
  H 1.617748 1.559700 -0.724542
  H 3.767434 -0.945308 1.347989
  H 2.773909 -2.012427 0.369331
  H 2.952174 -0.559519 -2.929953
  H 2.565527 1.132653 -3.143101
  H 0.280096 0.647326 -2.067313
  H 0.779245 -1.051462 -2.003749
  H 0.577108 0.608381 -4.557182
  H -0.582168 -0.607911 -4.027557
  H 1.062309 -1.090813 -4.471511
  H 4.915383 0.732159 -0.162321
  H 4.873663 0.829017 -3.236850
 25
 74.022680
  C 1.297570 0.993127 0.319482
  C 2.339200 0.076178 0.052786
  C 2.729499 -1.118712 0.846210
  H 2.026372 -1.286280 1.659187
  C 2.990981 0.598532 -1.120805
  C 2.387539 0.293583 -2.500757
  C 0.909483 -0.080352 -2.532466
  C 0.450554 -0.361953 -3.959249
  C 4.449392 0.717621 -1.119091
  C 5.249467 0.895893 -2.168003
  H 6.308621 1.047167 -2.043384
  H 1.552782 1.958060 0.738830
  H 0.350494 0.640445 0.739719
  H 1.894231 1.563220 -0.877768
  H 3.724078 -0.972455 1.271190
  H 2.776845 -2.012861 0.222411
  H 2.955596 -0.556426 -2.896367
  H 2.557953 1.136288 -3.175800
  H 0.303143 0.725971 -2.114965
  H 0.747254 -0.966875 -1.915928
  H 0.597354 0.514036 -4.588057
  H -0.605421 -0.622212 -3.976159
  H 1.013396 -1.188316 -4.388496
  H 4.890922 0.736550 -0.128461
  H 4.890546 0.908980 -3.182604
 25
 55.501597
  C 1.306400 0.946396 0.430121
  C 2.266433 0.061202 0.071426
  C 2.679139 -1.166844 0.806611
  H 2.054082 -1.322652 1.684481
  C 2.968951 0.635168 -1.132516
  C 2.379776 0.294042 -2.529659
  C 0.892576 -0.035162 -2.549970
  C 0.434572 -0.397653 -3.959511
  C 4.438684 0.751424 -1.091053
  C 5.248313 0.963844 -2.110444
  H 6.296621 1.153973 -1.959532
  H 1.546925 1.973433 0.648200
  H 0.402640 0.673706 0.986942
  H 2.171000 1.496839 -1.022134
  H 3.714844 -1.045497 1.119778
  H 2.640076 -2.061009 0.179874
  H 2.917244 -0.590620 -2.906878
  H 2.596525 1.107256 -3.221262
  H 0.305811 0.804915 -2.177474
  H 0.714057 -0.887711 -1.891665
  H 0.583474 0.442010 -4.636318
  H -0.620464 -0.657481 -3.965546
  H 1.000652 -1.244681 -4.339718
  H 4.848003 0.809692 -0.088304
  H 4.918686 0.939234 -3.135421
 25
 34.657936
  C 1.276605 0.954573 0.512941
  C 2.233222 0.143746 0.032080
  C 2.663225 -1.156177 0.614655
  H 1.989990 -1.468274 1.410527
  C 2.944642 0.783434 -1.152515
  C 2.404517 0.286136 -2.516433
  C 0.912807 -0.027702 -2.520542
  C 0.443636 -0.463398 -3.903663
  C 4.425480 0.848058 -1.065072
  C 5.278529 0.923961 -2.076444
  H 6.340966 0.990175 -1.909439
  H 1.470412 1.976293 0.780701
  H 0.419598 0.549298 1.048646
  H 2.293781 1.678932 -1.051521
  H 3.659280 -1.011656 1.030106
  H 2.731391 -1.954875 -0.126767
  H 2.948933 -0.620874 -2.802378
  H 2.616780 1.048517 -3.266382
  H 0.349852 0.859804 -2.217365
  H 0.694791 -0.810957 -1.793004
  H 0.653543 0.311687 -4.638372
  H -0.626608 -0.654381 -3.903163
  H 0.957624 -1.370600 -4.214764
  H 4.811280 0.856147 -0.051523
  H 4.963769 0.934980 -3.105715
 25
 17.670293
  C 1.279832 0.916519 0.598287
  C 2.215180 0.157737 0.030879
  C 2.653439 -1.182492 0.516764
  H 2.060019 -1.502708 1.369680
  C 2.921348 0.809688 -1.147539
  C 2.415085 0.261510 -2.500145
  C 0.917292 -0.023934 -2.528627
  C 0.465016 -0.456472 -3.918447
  C 4.400306 0.911288 -1.028523
  C 5.275192 0.911063 -2.018050
  H 6.331092 1.014675 -1.831644
  H 1.399248 1.979134 0.727149
  H 0.503204 0.522663 1.244123
  H 2.348354 1.754627 -1.088777
  H 3.695161 -1.094936 0.821712
  H 2.604379 -1.949312 -0.258154
  H 2.951096 -0.664286 -2.735459
  H 2.661089 0.986125 -3.277662
  H 0.365473 0.871372 -2.230986
  H 0.678866 -0.809391 -1.809723
  H 0.679368 0.320084 -4.649840
  H -0.604955 -0.650785 -3.929048
  H 0.981489 -1.364247 -4.223477
  H 4.755125 1.036783 -0.011669
  H 4.989137 0.804894 -3.050037
 25
 6.217828
  C 1.263453 0.857968 0.664249
  C 2.215648 0.188118 0.027494
  C 2.706179 -1.157564 0.454461
  H 2.098262 -1.558017 1.262162
  C 2.900775 0.855764 -1.144588
  C 2.408166 0.267987 -2.483487
  C 0.898141 0.059507 -2.542705
  C 0.467071 -0.466829 -3.906646
  C 4.388946 0.906910 -1.017943
  C 5.271116 0.828611 -1.997046
  H 6.328882 0.889469 -1.802388
  H 1.183500 1.930818 0.666248
  H 0.612608 0.359756 1.369264
  H 2.437215 1.849080 -1.108187
  H 3.730775 -1.049151 0.806840
  H 2.717353 -1.871987 -0.368906
  H 2.906588 -0.688796 -2.663686
  H 2.703352 0.948942 -3.283842
  H 0.390150 1.005867 -2.341806
  H 0.592735 -0.647286 -1.769572
  H 0.754357 0.227421 -4.693778
  H -0.611974 -0.597452 -3.942465
  H 0.935623 -1.427266 -4.111280
  H 4.740008 1.048844 -0.002179
  H 4.990979 0.701340 -3.028206
 25
 -0.280210
  C 1.282133 0.797989 0.756447
  C 2.225523 0.208000 0.039133
  C 2.765992 -1.145639 0.380730
  H 2.223152 -1.582741 1.214964
  C 2.847662 0.903401 -1.151236
  C 2.397972 0.257262 -2.471828
  C 0.881943 0.114534 -2.575687
  C 0.468198 -0.458256 -3.926037
  C 4.338849 0.987526 -0.998315
  C 5.250283 0.748328 -1.922312
  H 6.301687 0.845197 -1.708098
  H 0.998566 1.827363 0.620324
  H 0.791752 0.276453 1.563071
  H 2.435617 1.918897 -1.143286
  H 3.816907 -1.057023 0.652966
  H 2.704308 -1.821745 -0.470916
  H 2.861898 -0.726079 -2.575845
  H 2.749518 0.880147 -3.297178
  H 0.415804 1.093052 -2.438057
  H 0.518374 -0.536599 -1.778637
  H 0.806296 0.185725 -4.735361
  H -0.613794 -0.547674 -3.988677
  H 0.902403 -1.445302 -4.071568
  H 4.656083 1.290469 -0.006865
  H 5.002785 0.448768 -2.925723
 25
 -1.482895
  C 1.371284 0.782822 0.861866
  C 2.251352 0.212698 0.054529
  C 2.789977 -1.159521 0.306234
  H 2.379945 -1.572432 1.222223
  C 2.790164 0.933737 -1.164572
  C 2.387309 0.235996 -2.469440
  C 0.870758 0.124826 -2.614546
  C 0.476957 -0.440044 -3.974526
  C 4.273727 1.107744 -1.001818
  C 5.222276 0.671562 -1.807569
  H 6.263327 0.851327 -1.594707
  H 0.990360 1.773190 0.683802
  H 0.991227 0.280271 1.735890
  H 2.348082 1.938518 -1.170738
  H 3.874822 -1.126753 0.386655
  H 2.540368 -1.827089 -0.515359
  H 2.829476 -0.761663 -2.509965
  H 2.783898 0.812542 -3.309391
  H 0.422053 1.113762 -2.487759
  H 0.474124 -0.517824 -1.824575
  H 0.833998 0.204711 -4.774554
  H -0.603853 -0.522013 -4.057155
  H 0.906977 -1.429380 -4.116428
  H 4.544569 1.650083 -0.104239
  H 5.016730 0.124983 -2.711851
