 14
 0.000000
  H 1.423934 0.127973 0.365665
  C 2.504601 0.134848 0.385432
  C 3.175322 0.617821 1.589023
  H 2.480891 0.928820 2.361272
  C 3.148703 -0.321284 -0.748574
  C 4.535884 -0.386266 -0.908809
  C 5.139673 -0.849205 -2.062548
  H 4.580834 -1.196358 -2.925447
  O 6.415614 -0.922466 -2.249128
  H 3.835859 1.453172 1.343017
  H 3.834167 -0.156705 1.989876
  H 2.530840 -0.651536 -1.572580
  H 5.161197 -0.058122 -0.090222
  H 6.964474 -0.617310 -1.495566
 14
 4.728978
  H 1.453768 0.144030 0.400450
  C 2.532929 0.138129 0.391396
  C 3.209407 0.615809 1.585359
  H 2.501428 0.922881 2.346629
  C 3.149672 -0.329857 -0.770825
  C 4.512277 -0.407751 -0.961751
  C 5.173537 -0.858096 -2.081728
  H 4.610712 -1.206388 -2.940733
  O 6.450856 -0.916201 -2.234558
  H 3.866745 1.459034 1.352564
  H 3.862767 -0.157382 2.000810
  H 2.491367 -0.653361 -1.578768
  H 4.914625 -0.042256 -0.052275
  H 6.986159 -0.600339 -1.463354
 14
 15.183015
  H 1.469435 0.147656 0.412391
  C 2.547826 0.135605 0.385335
  C 3.248199 0.613959 1.580954
  H 2.550859 0.921054 2.345407
  C 3.128155 -0.332466 -0.779266
  C 4.488130 -0.423391 -1.003710
  C 5.198075 -0.862232 -2.092788
  H 4.668492 -1.221397 -2.977089
  O 6.482291 -0.900162 -2.193511
  H 3.894812 1.449689 1.349983
  H 3.892905 -0.151672 1.991367
  H 2.440916 -0.639144 -1.543591
  H 4.700649 -0.039281 -0.051544
  H 6.974036 -0.581344 -1.409614
 14
 28.444067
  H 1.475518 0.155594 0.427596
  C 2.556544 0.139416 0.394039
  C 3.263167 0.615602 1.585556
  H 2.562810 0.925259 2.354064
  C 3.124423 -0.332236 -0.777699
  C 4.482493 -0.436546 -1.032414
  C 5.216138 -0.868840 -2.106614
  H 4.714512 -1.231526 -2.998109
  O 6.505403 -0.892515 -2.177337
  H 3.919885 1.465511 1.351858
  H 3.916040 -0.163126 2.004301
  H 2.391573 -0.638296 -1.544617
  H 4.541270 -0.044331 -0.058419
  H 6.970900 -0.567226 -1.383168
 14
 42.570246
  H 1.472753 0.157532 0.434813
  C 2.556699 0.141145 0.398585
  C 3.271368 0.618832 1.593553
  H 2.579461 0.925282 2.356744
  C 3.118054 -0.329342 -0.772408
  C 4.493048 -0.442265 -1.047574
  C 5.230842 -0.872683 -2.116069
  H 4.740445 -1.240885 -3.019106
  O 6.518197 -0.890631 -2.172250
  H 3.924638 1.465922 1.362449
  H 3.922230 -0.155333 2.011088
  H 2.365470 -0.628901 -1.523846
  H 4.413942 -0.050116 -0.074518
  H 6.976620 -0.560705 -1.365140
 14
 55.793453
  H 1.470173 0.159080 0.434275
  C 2.554758 0.145841 0.406835
  C 3.258837 0.623234 1.607108
  H 2.557631 0.927658 2.370899
  C 3.127981 -0.320154 -0.758423
  C 4.519568 -0.444099 -1.046376
  C 5.238493 -0.880106 -2.124135
  H 4.741718 -1.252308 -3.017338
  O 6.525485 -0.898840 -2.197481
  H 3.911163 1.471680 1.381616
  H 3.909179 -0.150043 2.025844
  H 2.380016 -0.616633 -1.514111
  H 4.328096 -0.051003 -0.074200
  H 6.992015 -0.564648 -1.398868
 14
 67.098035
  H 1.480605 0.171211 0.418669
  C 2.546633 0.158552 0.410293
  C 3.233354 0.626123 1.628777
  H 2.527354 0.914901 2.381259
  C 3.143069 -0.294419 -0.748040
  C 4.550033 -0.458051 -1.028047
  C 5.237928 -0.907323 -2.117136
  H 4.723943 -1.327853 -2.984582
  O 6.522384 -0.896058 -2.235335
  H 3.895159 1.486217 1.427215
  H 3.882536 -0.165018 2.044431
  H 2.415229 -0.563703 -1.522156
  H 4.270294 -0.066108 -0.080237
  H 7.004981 -0.515629 -1.466702
 14
 72.573763
  H 1.456202 0.216287 0.392082
  C 2.536428 0.188879 0.411200
  C 3.198666 0.615429 1.663684
  H 2.472865 0.879167 2.416803
  C 3.166212 -0.225981 -0.724892
  C 4.575644 -0.500261 -1.032212
  C 5.244609 -0.969351 -2.090211
  H 4.723857 -1.533711 -2.872359
  O 6.529210 -0.892459 -2.309933
  H 3.858264 1.476737 1.513936
  H 3.823453 -0.199727 2.055486
  H 2.474173 -0.428746 -1.553914
  H 4.257743 -0.066863 -0.070120
  H 7.025563 -0.382958 -1.637232
 14
 77.412862
  H 1.443119 0.244388 0.379212
  C 2.529136 0.205476 0.419064
  C 3.170312 0.600883 1.697542
  H 2.428485 0.848078 2.445514
  C 3.180497 -0.182741 -0.711033
  C 4.590272 -0.506523 -1.042371
  C 5.250023 -1.006599 -2.078801
  H 4.735619 -1.653307 -2.785180
  O 6.528171 -0.903524 -2.357768
  H 3.824156 1.463070 1.574736
  H 3.783263 -0.210760 2.078615
  H 2.513905 -0.352389 -1.572643
  H 4.236184 -0.033462 -0.088946
  H 7.025166 -0.318559 -1.753624
 14
 81.169654
  H 1.441103 0.263530 0.372693
  C 2.520465 0.220679 0.429620
  C 3.143601 0.595512 1.724548
  H 2.394403 0.829480 2.461250
  C 3.183672 -0.151753 -0.698478
  C 4.594494 -0.502410 -1.060045
  C 5.252885 -1.036453 -2.074155
  H 4.750370 -1.736544 -2.738274
  O 6.525606 -0.915355 -2.380405
  H 3.789123 1.454757 1.623484
  H 3.765096 -0.230856 2.108814
  H 2.534852 -0.304402 -1.572347
  H 4.214547 0.009729 -0.121688
  H 7.011790 -0.278719 -1.821528
 14
 83.395817
  H 1.427403 0.291217 0.374638
  C 2.509503 0.240584 0.437258
  C 3.128066 0.566237 1.743479
  H 2.371422 0.772126 2.492421
  C 3.176893 -0.097952 -0.701805
  C 4.584888 -0.487121 -1.085275
  C 5.256572 -1.074669 -2.053797
  H 4.792257 -1.878931 -2.629195
  O 6.523746 -0.927953 -2.383998
  H 3.778375 1.439327 1.674631
  H 3.744936 -0.259756 2.092973
  H 2.537311 -0.221827 -1.583475
  H 4.186763 0.097837 -0.169438
  H 6.980176 -0.215235 -1.900838
 14
 84.615049
  H 1.416578 0.328288 0.383276
  C 2.495765 0.260004 0.441635
  C 3.127468 0.541087 1.750487
  H 2.377653 0.734468 2.509604
  C 3.157276 -0.057316 -0.713969
  C 4.541591 -0.491419 -1.116612
  C 5.259251 -1.114698 -2.020072
  H 4.846705 -1.994155 -2.530548
  O 6.521118 -0.922934 -2.355471
  H 3.781601 1.405900 1.701630
  H 3.749471 -0.304115 2.077471
  H 2.524304 -0.147857 -1.598602
  H 4.142509 0.177723 -0.223309
  H 6.928017 -0.141547 -1.939784
 14
 84.299580
  H 1.407851 0.357911 0.389921
  C 2.486542 0.283090 0.442800
  C 3.129477 0.510335 1.754247
  H 2.388011 0.678298 2.524383
  C 3.141767 -0.010820 -0.734108
  C 4.492384 -0.509567 -1.140680
  C 5.261632 -1.160403 -1.972931
  H 4.909497 -2.104366 -2.408072
  O 6.512275 -0.912591 -2.326974
  H 3.797593 1.378380 1.733633
  H 3.745041 -0.343670 2.044960
  H 2.515347 -0.060566 -1.622696
  H 4.101611 0.269595 -0.272961
  H 6.860215 -0.065321 -1.994059
 14
 80.687947
  H 1.398673 0.379234 0.394803
  C 2.478184 0.300398 0.440161
  C 3.131262 0.463549 1.752460
  H 2.396475 0.578466 2.539757
  C 3.134977 0.069044 -0.763403
  C 4.450698 -0.501706 -1.155307
  C 5.265766 -1.202764 -1.891967
  H 4.975655 -2.215286 -2.191049
  O 6.497405 -0.923097 -2.299905
  H 3.788902 1.335475 1.774273
  H 3.760489 -0.398974 1.989221
  H 2.520083 0.053482 -1.659731
  H 4.069647 0.434724 -0.355165
  H 6.777463 -0.008465 -2.119112
