 20
 0.000000
  C 1.005937 0.117712 0.344707
  C 2.480632 0.119461 0.349427
  C 3.210601 0.597811 1.538017
  H 2.550565 0.918836 2.335985
  C 3.135185 -0.337729 -0.787305
  C 4.518723 -0.401518 -0.946946
  C 5.181076 -0.856736 -2.083508
  C 4.553909 -1.353617 -3.323742
  H 3.473087 -1.354134 -3.325490
  O 6.493780 -0.870208 -2.118373
  H 0.585725 0.491365 1.273114
  H 0.631445 -0.892201 0.171196
  H 0.631644 0.726169 -0.479890
  H 3.861024 1.430795 1.267008
  H 3.861259 -0.190500 1.919494
  H 2.512084 -0.666799 -1.606100
  H 5.142598 -0.072174 -0.125998
  H 4.918679 -2.364594 -3.511499
  H 4.918979 -0.752188 -4.157598
  H 6.906724 -0.541645 -1.297462
 20
 2.867725
  C 0.993876 0.157884 0.334259
  C 2.468380 0.144565 0.329165
  C 3.204796 0.475988 1.563306
  H 2.529722 0.693877 2.387326
  C 3.117630 -0.209938 -0.844864
  C 4.501741 -0.258127 -1.001621
  C 5.181815 -0.767740 -2.104021
  C 4.564805 -1.467492 -3.246824
  H 3.488588 -1.530483 -3.169610
  O 6.488707 -0.645088 -2.188993
  H 0.585891 0.419802 1.304449
  H 0.604360 -0.818472 0.034168
  H 0.622272 0.863094 -0.410570
  H 3.846555 1.343961 1.399680
  H 3.860829 -0.343365 1.853605
  H 2.496737 -0.441853 -1.697829
  H 5.141071 0.161105 -0.238621
  H 4.990396 -2.470242 -3.309085
  H 4.838456 -0.966939 -4.178374
  H 7.013297 -0.588342 -1.370699
 20
 6.898660
  C 0.990865 0.112711 0.347954
  C 2.464534 0.112529 0.349152
  C 3.191663 0.552559 1.553149
  H 2.513623 0.806532 2.360772
  C 3.120729 -0.312608 -0.798559
  C 4.505218 -0.314664 -0.964653
  C 5.190709 -0.762125 -2.088445
  C 4.577839 -1.362181 -3.286913
  H 3.497638 -1.387914 -3.246895
  O 6.508330 -0.604532 -2.156367
  H 0.575261 0.487389 1.277850
  H 0.614441 -0.895749 0.172036
  H 0.613936 0.712507 -0.482936
  H 3.803721 1.427563 1.325976
  H 3.877535 -0.221284 1.896103
  H 2.501125 -0.645214 -1.618147
  H 5.117326 0.110910 -0.182619
  H 4.966523 -2.374382 -3.404354
  H 4.902585 -0.819404 -4.175155
  H 7.052433 -0.976525 -1.443850
 20
 10.591183
  C 0.984106 0.083514 0.353998
  C 2.457292 0.110591 0.356568
  C 3.176342 0.591156 1.551202
  H 2.494431 0.836675 2.359853
  C 3.123901 -0.330687 -0.783946
  C 4.504884 -0.325575 -0.942168
  C 5.200067 -0.762825 -2.061768
  C 4.603210 -1.329559 -3.285983
  H 3.520316 -1.322510 -3.278615
  O 6.527082 -0.568089 -2.084845
  H 0.559844 0.462392 1.277569
  H 0.627688 -0.935266 0.189545
  H 0.596332 0.663294 -0.485652
  H 3.760250 1.481825 1.305717
  H 3.891372 -0.153873 1.901687
  H 2.512058 -0.692016 -1.598027
  H 5.123390 0.073634 -0.150944
  H 4.957014 -2.352960 -3.420832
  H 4.974366 -0.776011 -4.152967
  H 7.096347 -1.235146 -1.673329
 20
 7.853307
  C 0.969955 0.121790 0.331462
  C 2.443470 0.126649 0.354372
  C 3.152255 0.514203 1.585224
  H 2.465236 0.708052 2.401672
  C 3.118033 -0.243688 -0.803824
  C 4.502858 -0.242372 -0.950064
  C 5.212033 -0.699993 -2.051451
  C 4.636762 -1.431138 -3.199462
  H 3.557139 -1.478455 -3.168495
  O 6.517381 -0.439995 -2.063878
  H 0.540066 0.440706 1.275525
  H 0.601185 -0.876722 0.092509
  H 0.601562 0.767510 -0.467832
  H 3.747227 1.412286 1.408874
  H 3.856771 -0.260808 1.887849
  H 2.512624 -0.532125 -1.650655
  H 5.128278 0.115571 -0.137401
  H 5.033074 -2.446918 -3.239615
  H 4.963739 -0.947384 -4.122029
  H 7.122153 -1.196495 -2.101501
 20
 7.325058
  C 0.964586 0.187823 0.304251
  C 2.438442 0.162448 0.304603
  C 3.174213 0.275386 1.576712
  H 2.503877 0.319524 2.428852
  C 3.100341 -0.002342 -0.902078
  C 4.490170 -0.021657 -1.046401
  C 5.208314 -0.628354 -2.068034
  C 4.664716 -1.625290 -3.010603
  H 3.590140 -1.722393 -2.912339
  O 6.486807 -0.292890 -2.130825
  H 0.553824 0.330940 1.298145
  H 0.572021 -0.743007 -0.108222
  H 0.599979 0.976743 -0.355435
  H 3.790227 1.176146 1.567143
  H 3.861780 -0.559253 1.706969
  H 2.497663 -0.106925 -1.794289
  H 5.143131 0.508801 -0.364756
  H 5.117239 -2.603656 -2.847072
  H 4.920095 -1.330587 -4.029331
  H 7.114427 -1.025556 -2.258886
 20
 15.942711
  C 0.923950 0.269610 0.338271
  C 2.394540 0.187833 0.273866
  C 3.186044 0.110865 1.515770
  H 2.555209 0.078208 2.398093
  C 3.013701 0.189776 -0.960882
  C 4.407111 0.141048 -1.140776
  C 5.142399 -0.549439 -2.086790
  C 4.687313 -1.706188 -2.879169
  H 3.620496 -1.861045 -2.757696
  O 6.398754 -0.122580 -2.175435
  H 0.558867 0.306765 1.359434
  H 0.475422 -0.589700 -0.162565
  H 0.569108 1.146095 -0.205834
  H 3.841556 0.980697 1.580338
  H 3.839523 -0.760319 1.514229
  H 2.399760 0.311351 -1.844422
  H 5.136171 0.766643 -0.635825
  H 5.210771 -2.617400 -2.590582
  H 4.917556 -1.528065 -3.930376
  H 7.094983 -0.797667 -2.104133
 20
 31.439626
  C 0.909029 0.352558 0.411109
  C 2.370271 0.220143 0.266494
  C 3.210383 -0.054914 1.447113
  H 2.615453 -0.192229 2.344453
  C 2.929769 0.297447 -0.992199
  C 4.306634 0.163120 -1.247794
  C 5.085881 -0.571906 -2.115239
  C 4.804476 -1.824349 -2.834485
  H 3.754307 -2.086136 -2.748637
  O 6.303692 -0.001006 -2.202487
  H 0.592316 0.280122 1.446637
  H 0.399180 -0.421213 -0.164385
  H 0.571305 1.303461 -0.003845
  H 3.900162 0.775597 1.605455
  H 3.825812 -0.939522 1.292207
  H 2.280416 0.499782 -1.836102
  H 5.144914 0.830817 -0.965056
  H 5.406870 -2.648215 -2.452902
  H 5.061536 -1.690617 -3.885640
  H 7.061058 -0.542412 -1.924485
 20
 55.621060
  C 0.879826 0.427287 0.519547
  C 2.317230 0.203508 0.287072
  C 3.213721 -0.095053 1.418334
  H 2.668636 -0.177883 2.353449
  C 2.805370 0.258591 -1.007108
  C 4.142264 0.058560 -1.344503
  C 4.986931 -0.614711 -2.146152
  C 4.919720 -1.883924 -2.890337
  H 3.904373 -2.268668 -2.887550
  O 6.183518 0.102762 -2.128555
  H 0.626366 0.389156 1.574351
  H 0.287879 -0.322071 -0.008632
  H 0.575505 1.392553 0.112316
  H 3.961875 0.691155 1.521895
  H 3.757399 -1.022180 1.240277
  H 2.129321 0.563521 -1.799192
  H 5.178282 0.765581 -1.143034
  H 5.581826 -2.633198 -2.458324
  H 5.234972 -1.709302 -3.918831
  H 6.955637 -0.362822 -1.765099
 20
 66.490540
  C 0.884053 0.471510 0.568892
  C 2.309761 0.190460 0.286623
  C 3.229648 -0.155963 1.394981
  H 2.705306 -0.228158 2.342538
  C 2.759629 0.235757 -1.016889
  C 4.058288 -0.007618 -1.408042
  C 4.934561 -0.630154 -2.162353
  C 4.978651 -1.896314 -2.918824
  H 3.988494 -2.338727 -2.959809
  O 6.137368 0.178157 -2.092706
  H 0.664465 0.430534 1.631133
  H 0.245384 -0.247459 0.053524
  H 0.606356 1.454243 0.186347
  H 4.009666 0.598575 1.491574
  H 3.727900 -1.103250 1.190994
  H 2.073340 0.579686 -1.784302
  H 5.338130 0.782617 -1.284330
  H 5.662664 -2.607852 -2.458379
  H 5.323692 -1.699460 -3.933192
  H 6.921271 -0.262854 -1.704210
 20
 57.806593
  C 0.875192 0.491427 0.595106
  C 2.295346 0.182078 0.293027
  C 3.229701 -0.167188 1.394513
  H 2.717212 -0.220739 2.349744
  C 2.728255 0.211682 -1.017946
  C 3.998163 -0.057571 -1.429158
  C 4.901149 -0.644299 -2.151898
  C 5.006681 -1.894968 -2.927015
  H 4.030495 -2.361320 -3.006526
  O 6.137775 0.205067 -2.057488
  H 0.673300 0.464914 1.661443
  H 0.215114 -0.222343 0.099214
  H 0.607032 1.475804 0.208863
  H 4.021699 0.577331 1.472952
  H 3.709501 -1.125504 1.196203
  H 2.035499 0.562030 -1.776155
  H 5.574585 0.762885 -1.367568
  H 5.693658 -2.596928 -2.456949
  H 5.376737 -1.670808 -3.926309
  H 6.921177 -0.248409 -1.670039
 20
 50.307786
  C 0.841315 0.512332 0.614131
  C 2.251212 0.163205 0.284519
  C 3.202567 -0.217378 1.369824
  H 2.709498 -0.243822 2.337126
  C 2.655045 0.189590 -1.039116
  C 3.903152 -0.087221 -1.479311
  C 4.863055 -0.621812 -2.151956
  C 5.052006 -1.900530 -2.869546
  H 4.096954 -2.421502 -2.936773
  O 6.117971 0.209611 -2.113030
  H 0.657825 0.488267 1.684653
  H 0.149870 -0.171960 0.123426
  H 0.594963 1.506945 0.237039
  H 4.014155 0.515154 1.436340
  H 3.654425 -1.190003 1.164093
  H 1.942086 0.544567 -1.783379
  H 5.766827 0.891554 -1.482455
  H 5.750876 -2.546500 -2.341202
  H 5.428195 -1.707361 -3.870015
  H 6.960533 -0.180468 -1.787840
