 29
 0.000000
  H 1.460799 0.156299 0.443219
  C 2.540083 0.147184 0.419759
  C 3.294083 0.617177 1.587574
  C 2.443961 1.089436 2.762478
  C 3.319853 1.556041 3.921409
  C 3.118927 -0.320485 -0.744398
  C 4.492370 -0.417590 -0.987517
  C 5.142421 -0.876973 -2.133567
  C 4.607075 -1.392756 -3.420294
  C 3.110231 -1.497822 -3.683799
  C 2.866635 -2.058583 -5.082893
  O 6.457178 -0.883522 -2.150683
  H 3.954769 1.436118 1.277896
  H 3.955474 -0.187591 1.931012
  H 1.801712 0.277711 3.108743
  H 1.801005 1.914381 2.450392
  H 3.954934 0.749137 4.279922
  H 2.701559 1.889478 4.751055
  H 3.954119 2.386937 3.621041
  H 2.440731 -0.632329 -1.520015
  H 5.148397 -0.095721 -0.186382
  H 5.055702 -2.383702 -3.557527
  H 5.056361 -0.771472 -4.204052
  H 2.643040 -0.514329 -3.623502
  H 2.642347 -2.166991 -2.960968
  H 3.300160 -1.413595 -5.843431
  H 1.799678 -2.135301 -5.275408
  H 3.299507 -3.050622 -5.187194
  H 6.873741 -0.555234 -1.330475
 29
 -0.161889
  H 1.538169 -0.302059 0.706721
  C 2.597969 -0.161570 0.545727
  C 3.327240 0.573812 1.585549
  C 2.451539 1.042844 2.743896
  C 3.269439 1.794749 3.788388
  C 3.136472 -0.678013 -0.611944
  C 4.505163 -0.670963 -0.902888
  C 5.161662 -1.076540 -2.072548
  C 4.609989 -1.448893 -3.402624
  C 3.110040 -1.469249 -3.666946
  C 2.848684 -1.789328 -5.136925
  O 6.477351 -1.108605 -2.084827
  H 3.832424 1.439922 1.141408
  H 4.134410 -0.055836 1.980922
  H 1.971440 0.183017 3.214757
  H 1.663102 1.697464 2.367971
  H 4.042924 1.156854 4.210250
  H 2.630546 2.129171 4.601962
  H 3.744141 2.671250 3.352974
  H 2.453782 -1.132739 -1.307616
  H 5.157005 -0.332365 -0.105273
  H 5.031066 -2.430096 -3.652290
  H 5.082775 -0.763386 -4.117337
  H 2.670940 -0.497508 -3.439391
  H 2.626737 -2.236446 -3.061645
  H 3.294867 -1.038996 -5.785177
  H 1.780106 -1.811204 -5.334137
  H 3.259999 -2.759892 -5.403673
  H 6.909852 -0.869407 -1.242613
 29
 1.056999
  H 1.640690 -0.730305 0.940813
  C 2.639071 -0.459253 0.628166
  C 3.293729 0.562924 1.458883
  C 2.465068 0.999968 2.665269
  C 3.192125 2.063748 3.480684
  C 3.193624 -1.049139 -0.482152
  C 4.542826 -0.903275 -0.819681
  C 5.203482 -1.248141 -2.000071
  C 4.628218 -1.414323 -3.358888
  C 3.126026 -1.284721 -3.576400
  C 2.805740 -1.379958 -5.065652
  O 6.509480 -1.353081 -2.007307
  H 3.522767 1.442725 0.846071
  H 4.264699 0.199081 1.815696
  H 2.258689 0.137235 3.301312
  H 1.507044 1.401273 2.329332
  H 4.129478 1.678774 3.875864
  H 2.580147 2.381926 4.320886
  H 3.407388 2.939335 2.872405
  H 2.566967 -1.693410 -1.076337
  H 5.163112 -0.489294 -0.030137
  H 4.968585 -2.382984 -3.742412
  H 5.143953 -0.675148 -3.983985
  H 2.771172 -0.324852 -3.199311
  H 2.594824 -2.084038 -3.062316
  H 3.296589 -0.585130 -5.622290
  H 1.734740 -1.292725 -5.228279
  H 3.131614 -2.333910 -5.473382
  H 6.943684 -1.255129 -1.137912
 29
 5.505453
  H 1.743131 -1.028357 1.154841
  C 2.680905 -0.757057 0.693692
  C 3.243944 0.474852 1.283229
  C 2.502362 0.938649 2.539367
  C 3.103690 2.225303 3.093903
  C 3.260381 -1.439411 -0.342249
  C 4.575709 -1.158552 -0.728815
  C 5.251303 -1.437256 -1.919548
  C 4.659497 -1.378002 -3.279635
  C 3.170245 -1.076928 -3.406814
  C 2.776069 -0.992400 -4.878225
  O 6.540793 -1.644437 -1.928329
  H 3.210060 1.280909 0.541652
  H 4.300488 0.359636 1.548339
  H 2.549499 0.158767 3.301464
  H 1.449997 1.111459 2.305141
  H 4.136023 2.073754 3.400958
  H 2.542857 2.562356 3.962115
  H 3.076764 3.018053 2.349640
  H 2.724531 -2.252656 -0.806142
  H 5.118690 -0.611651 0.044517
  H 4.888454 -2.321856 -3.787234
  H 5.234645 -0.617417 -3.819523
  H 2.936732 -0.128994 -2.920743
  H 2.581081 -1.859629 -2.934091
  H 3.328169 -0.204470 -5.385200
  H 1.715415 -0.776398 -4.974441
  H 2.976404 -1.931501 -5.388507
  H 6.961520 -1.716975 -1.049395
 29
 11.676790
  H 1.682407 -0.962169 1.130868
  C 2.655582 -0.830072 0.686328
  C 3.253861 0.411580 1.233795
  C 2.545012 0.912492 2.500389
  C 3.094249 2.262244 2.949436
  C 3.234228 -1.573989 -0.305954
  C 4.537832 -1.257176 -0.705593
  C 5.252839 -1.510509 -1.880733
  C 4.678587 -1.379438 -3.246471
  C 3.207765 -0.996410 -3.348809
  C 2.794264 -0.878010 -4.809532
  O 6.531021 -1.752123 -1.868758
  H 3.161592 1.202787 0.475981
  H 4.318816 0.361106 1.471839
  H 2.661137 0.183071 3.303407
  H 1.474514 1.016412 2.301874
  H 4.144531 2.185049 3.219796
  H 2.550597 2.619483 3.820082
  H 2.992195 3.007428 2.163710
  H 2.746034 -2.458487 -0.684906
  H 4.986698 -0.580646 0.044165
  H 4.878398 -2.292622 -3.808587
  H 5.282607 -0.599888 -3.726687
  H 3.035047 -0.041594 -2.848998
  H 2.588282 -1.748269 -2.870036
  H 3.403384 -0.143317 -5.330655
  H 1.754486 -0.574358 -4.885548
  H 2.906470 -1.831107 -5.319796
  H 6.922587 -1.879365 -0.987878
 29
 28.753512
  H 1.811994 -1.281287 1.424653
  C 2.680181 -1.096858 0.805952
  C 3.181328 0.285243 0.996570
  C 2.581240 0.917861 2.268675
  C 3.086779 2.334370 2.483307
  C 3.282839 -1.967394 -0.064861
  C 4.492249 -1.534395 -0.625603
  C 5.246498 -1.632051 -1.796898
  C 4.718432 -1.232523 -3.121932
  C 3.240583 -0.853444 -3.147114
  C 2.807243 -0.495175 -4.574793
  O 6.525531 -1.888377 -1.795552
  H 2.953671 0.908113 0.156975
  H 4.258552 0.403747 1.223747
  H 2.807274 0.288785 3.139678
  H 1.495761 0.950144 2.171447
  H 4.158601 2.363028 2.671894
  H 2.591573 2.784481 3.338565
  H 2.865563 2.948736 1.611397
  H 2.849414 -2.949497 -0.287303
  H 4.786585 -0.706041 0.116534
  H 4.875653 -2.120351 -3.780219
  H 5.340260 -0.447023 -3.523768
  H 3.093435 0.007682 -2.502005
  H 2.640923 -1.674684 -2.754173
  H 3.372280 0.370052 -4.936656
  H 1.747804 -0.224383 -4.599560
  H 2.961888 -1.326569 -5.259158
  H 6.872924 -2.260337 -0.966354
 29
 62.013880
  H 1.847961 -1.415631 1.603754
  C 2.660068 -1.214673 0.928035
  C 3.152026 0.180884 0.949671
  C 2.675662 0.919689 2.227342
  C 3.153627 2.366270 2.263548
  C 3.184327 -2.084187 0.016801
  C 4.327477 -1.711517 -0.650641
  C 5.141855 -1.721407 -1.716507
  C 4.718036 -1.211119 -3.062933
  C 3.247339 -0.820428 -3.162794
  C 2.908786 -0.345345 -4.572382
  O 6.432138 -1.991524 -1.663361
  H 2.783511 0.729544 0.082418
  H 4.256021 0.443152 1.050727
  H 3.030644 0.392417 3.110722
  H 1.585763 0.900090 2.241508
  H 4.237662 2.430260 2.330878
  H 2.745409 2.872229 3.136038
  H 2.823838 2.909639 1.379677
  H 2.769325 -3.071865 -0.112463
  H 4.584658 -0.551616 0.366540
  H 4.928758 -2.015186 -3.773837
  H 5.364068 -0.373827 -3.325566
  H 3.017467 -0.025216 -2.453093
  H 2.621752 -1.676994 -2.918163
  H 3.506577 0.524341 -4.843951
  H 1.857828 -0.073680 -4.640489
  H 3.097731 -1.130450 -5.301200
  H 6.710354 -2.362133 -0.819247
 29
 75.213104
  H 1.835612 -1.414039 1.591218
  C 2.645550 -1.175468 0.931031
  C 3.207857 0.228314 0.977408
  C 2.708512 0.946803 2.256128
  C 3.174872 2.397746 2.326661
  C 3.136792 -2.088842 0.026409
  C 4.231099 -1.820069 -0.735028
  C 5.076581 -1.796081 -1.734708
  C 4.715679 -1.266100 -3.101698
  C 3.254666 -0.858400 -3.252740
  C 2.974583 -0.349155 -4.661676
  O 6.403258 -2.080685 -1.641350
  H 2.875786 0.785971 0.090430
  H 4.333880 0.593277 1.160177
  H 3.043409 0.407433 3.142197
  H 1.619171 0.919822 2.242731
  H 4.257015 2.472735 2.415353
  H 2.744680 2.884154 3.197607
  H 2.855783 2.955520 1.449298
  H 2.675991 -3.065104 -0.040560
  H 4.342048 -0.324180 0.630643
  H 4.961132 -2.053670 -3.818265
  H 5.374391 -0.422202 -3.319680
  H 3.013194 -0.072974 -2.535971
  H 2.612216 -1.715314 -3.043145
  H 3.591943 0.517111 -4.889128
  H 1.931231 -0.061505 -4.763816
  H 3.186668 -1.119592 -5.399951
  H 6.621612 -2.540368 -0.812910
 29
 76.279364
  H 2.016941 -1.466684 1.691513
  C 2.794978 -1.206926 0.996749
  C 3.300309 0.247564 1.025562
  C 2.690352 0.954245 2.257496
  C 3.019511 2.444012 2.281163
  C 3.225301 -2.120829 0.054456
  C 4.259411 -1.917223 -0.794070
  C 5.079232 -1.890716 -1.806687
  C 4.712543 -1.301882 -3.150135
  C 3.266156 -0.832248 -3.253918
  C 2.976477 -0.257437 -4.635594
  O 6.403277 -2.231864 -1.754314
  H 2.966374 0.723400 0.094376
  H 4.380437 0.750235 1.175829
  H 3.047409 0.484559 3.173461
  H 1.608818 0.829531 2.220288
  H 4.087351 2.622065 2.392175
  H 2.522999 2.922608 3.120705
  H 2.674951 2.935808 1.375051
  H 2.725105 -3.082472 0.025004
  H 4.353541 -0.321193 0.935474
  H 4.910767 -2.073879 -3.898842
  H 5.400119 -0.477074 -3.353455
  H 3.072055 -0.067098 -2.501767
  H 2.595211 -1.671485 -3.062739
  H 3.622697 0.592564 -4.843631
  H 1.943150 0.073964 -4.703029
  H 3.142849 -1.006286 -5.407251
  H 6.613148 -2.726717 -0.950141
 29
 74.905949
  H 2.169381 -1.460734 1.754596
  C 2.913067 -1.219477 1.017413
  C 3.373219 0.318265 1.024055
  C 2.709053 0.977047 2.255397
  C 2.954627 2.482391 2.273032
  C 3.266467 -2.156482 0.049363
  C 4.268042 -1.982894 -0.840923
  C 5.088503 -1.943638 -1.850679
  C 4.718154 -1.319157 -3.177419
  C 3.277581 -0.828493 -3.260529
  C 2.987771 -0.219903 -4.627170
  O 6.403949 -2.305349 -1.812913
  H 2.997283 0.749119 0.088412
  H 4.405315 0.780595 1.110700
  H 3.093638 0.533767 3.173327
  H 1.634297 0.795689 2.223282
  H 4.011380 2.716443 2.381149
  H 2.431576 2.935568 3.110725
  H 2.585132 2.949724 1.363656
  H 2.729593 -3.099428 0.048789
  H 4.176747 -0.574358 1.002772
  H 4.901907 -2.075539 -3.944558
  H 5.415539 -0.498659 -3.364601
  H 3.098820 -0.077242 -2.490892
  H 2.596515 -1.662545 -3.083819
  H 3.643779 0.625898 -4.820229
  H 1.958774 0.126287 -4.680993
  H 3.139552 -0.953379 -5.416065
  H 6.616061 -2.816824 -1.018493
 29
 60.791397
  H 2.454111 -1.494196 1.920498
  C 3.139432 -1.250443 1.129585
  C 3.358339 0.329366 1.007116
  C 2.670204 1.019055 2.188858
  C 2.765708 2.536022 2.056217
  C 3.392329 -2.223209 0.103777
  C 4.313783 -2.102303 -0.849872
  C 5.095893 -2.069161 -1.894435
  C 4.705566 -1.333032 -3.154577
  C 3.314152 -0.710603 -3.119973
  C 3.006039 -0.001761 -4.433569
  O 6.357154 -2.551747 -1.952544
  H 2.880797 0.634820 0.068305
  H 4.357884 0.790792 0.971613
  H 3.133582 0.710791 3.126552
  H 1.618581 0.730214 2.223830
  H 3.798857 2.873938 2.093136
  H 2.229903 3.016539 2.870468
  H 2.322761 2.874513 1.122284
  H 2.819141 -3.144681 0.154037
  H 4.248035 -0.890262 1.157771
  H 4.776314 -2.055801 -3.971567
  H 5.463081 -0.567173 -3.338552
  H 3.252787 0.008702 -2.302280
  H 2.568420 -1.488361 -2.945952
  H 3.724578 0.793131 -4.621413
  H 2.011505 0.436636 -4.407497
  H 3.045788 -0.699367 -5.267394
  H 6.571168 -3.128850 -1.202928
 29
 34.250098
  H 3.102181 -1.494947 2.236224
  C 3.630658 -1.211972 1.345543
  C 3.357032 0.287022 1.000101
  C 2.649062 0.989815 2.157888
  C 2.331875 2.441939 1.817633
  C 3.693576 -2.187837 0.223691
  C 4.384751 -2.122448 -0.860511
  C 5.050755 -2.173686 -2.029372
  C 4.636427 -1.355234 -3.204360
  C 3.381406 -0.512312 -2.998757
  C 3.053045 0.275621 -4.261901
  O 6.149163 -2.880737 -2.219676
  H 2.691119 0.330966 0.127056
  H 4.238948 0.870345 0.751047
  H 3.284786 0.960557 3.045811
  H 1.718242 0.472400 2.400430
  H 3.246907 3.005401 1.639743
  H 1.809888 2.919055 2.643766
  H 1.706045 2.510044 0.932612
  H 3.110271 -3.095310 0.395733
  H 4.710315 -0.996733 1.340316
  H 4.504092 -2.046525 -4.043807
  H 5.475378 -0.711196 -3.484931
  H 3.533624 0.181280 -2.172575
  H 2.539522 -1.162612 -2.753219
  H 3.869707 0.946924 -4.521327
  H 2.156276 0.871583 -4.118412
  H 2.886294 -0.393262 -5.102939
  H 6.389360 -3.466946 -1.478456
 29
 20.681101
  H 3.475506 -1.453963 2.294878
  C 3.942767 -1.102275 1.380766
  C 3.392717 0.274974 0.968895
  C 2.666250 0.965311 2.123204
  C 2.134318 2.331944 1.704139
  C 3.877968 -2.115795 0.264308
  C 4.486680 -2.098315 -0.860269
  C 5.060123 -2.154244 -2.089616
  C 4.561618 -1.326883 -3.217024
  C 3.359517 -0.444652 -2.899553
  C 2.932861 0.342025 -4.129883
  O 6.113672 -2.891658 -2.356124
  H 2.683801 0.166594 0.144774
  H 4.196921 0.922059 0.613998
  H 3.350161 1.089873 2.965310
  H 1.831824 0.346457 2.458928
  H 2.949953 2.994737 1.420941
  H 1.591485 2.796043 2.524057
  H 1.455524 2.240719 0.858515
  H 3.255726 -2.979353 0.503653
  H 5.018829 -0.972205 1.513439
  H 4.326113 -2.013215 -4.040292
  H 5.393163 -0.713211 -3.581342
  H 3.614096 0.252625 -2.101518
  H 2.524937 -1.061639 -2.562052
  H 3.735549 0.987916 -4.475447
  H 2.073082 0.964953 -3.902032
  H 2.658706 -0.326259 -4.941495
  H 6.410478 -3.477946 -1.637012
 29
 20.122061
  H 3.258340 -1.500883 2.190836
  C 3.925502 -1.117404 1.447594
  C 3.613024 0.365812 1.161733
  C 2.548620 0.914367 2.108567
  C 2.257190 2.376512 1.811214
  C 3.789598 -1.934468 0.180390
  C 4.525055 -1.891760 -0.883771
  C 5.157462 -1.910804 -2.089638
  C 4.585488 -1.223339 -3.268432
  C 3.223889 -0.543971 -3.043771
  C 2.757930 0.156635 -4.320963
  O 6.297421 -2.516486 -2.291242
  H 3.257791 0.501478 0.147124
  H 4.520302 0.947146 1.258346
  H 2.890881 0.813451 3.129109
  H 1.631781 0.347818 2.009487
  H 3.145578 2.975083 1.931159
  H 1.494298 2.751933 2.489598
  H 1.896523 2.502892 0.805908
  H 2.972070 -2.654557 0.229403
  H 4.959514 -1.236890 1.808890
  H 4.520151 -1.965617 -4.086671
  H 5.330998 -0.480056 -3.607859
  H 3.303020 0.205728 -2.237918
  H 2.471380 -1.292826 -2.749689
  H 3.476331 0.930354 -4.629851
  H 1.785331 0.639032 -4.158460
  H 2.649459 -0.565276 -5.144420
  H 6.666917 -2.946381 -1.542364
 29
 21.611840
  H 2.913758 -1.594162 2.053662
  C 3.740223 -1.232141 1.452364
  C 3.699155 0.310492 1.361250
  C 2.489846 0.882520 2.097455
  C 2.464246 2.405020 2.004094
  C 3.713113 -1.845232 0.080480
  C 4.573766 -1.693031 -0.862575
  C 5.233748 -1.677209 -2.045930
  C 4.576971 -1.156576 -3.278480
  C 3.125566 -0.714164 -3.131739
  C 2.605081 -0.151675 -4.450565
  O 6.476910 -2.057241 -2.198562
  H 3.651808 0.634742 0.321509
  H 4.610952 0.724366 1.792573
  H 2.528853 0.589753 3.148465
  H 1.568520 0.484874 1.668153
  H 3.359025 2.833545 2.449925
  H 1.599797 2.800880 2.531596
  H 2.407718 2.729942 0.967780
  H 2.930584 -2.592649 -0.058721
  H 4.692040 -1.549660 1.873887
  H 4.662215 -1.930307 -4.047518
  H 5.190450 -0.320009 -3.633825
  H 3.044883 0.052985 -2.360716
  H 2.504911 -1.560272 -2.836839
  H 3.188725 0.710800 -4.763217
  H 1.570126 0.162348 -4.345870
  H 2.652069 -0.900071 -5.237855
  H 6.917520 -2.391513 -1.394347
