 22
 0.000000
  C 0.983304 0.197788 0.557596
  C 2.425656 0.123913 0.357843
  H 3.081194 0.452092 1.154996
  C 2.978276 -0.346387 -0.810325
  C 4.369773 -0.419136 -0.998110
  C 5.051056 -0.869787 -2.111260
  C 4.610432 -1.388359 -3.404025
  C 3.140382 -1.527264 -3.763355
  C 2.983840 -2.091834 -5.173406
  H 6.132727 -0.838310 -2.025149
  H 0.709551 0.590341 1.530526
  H 0.534554 -0.789593 0.419204
  H 0.535374 0.807522 -0.231924
  H 2.312677 -0.666086 -1.594281
  H 4.985955 -0.085425 -0.171891
  H 5.105682 -2.363442 -3.528839
  H 5.111301 -0.773790 -4.167698
  H 2.651179 -0.552370 -3.726113
  H 2.645308 -2.203565 -3.064501
  H 3.445900 -1.439267 -5.910640
  H 1.931524 -2.189636 -5.427188
  H 3.439897 -3.075795 -5.254792
 22
 0.490159
  C 0.997139 0.314222 0.546799
  C 2.413115 -0.006119 0.393496
  H 3.071357 0.138900 1.240528
  C 2.951899 -0.442936 -0.795918
  C 4.340421 -0.509943 -0.984117
  C 5.037631 -0.812941 -2.135792
  C 4.611697 -1.302508 -3.438714
  C 3.153420 -1.586095 -3.749867
  C 3.004425 -2.154996 -5.156634
  H 6.110662 -0.680437 -2.071272
  H 0.756222 0.677992 1.538991
  H 0.377550 -0.550977 0.310020
  H 0.716938 1.060131 -0.201431
  H 2.282629 -0.674503 -1.606424
  H 4.942205 -0.220462 -0.129832
  H 5.202638 -2.212012 -3.629398
  H 5.017255 -0.606035 -4.188924
  H 2.572911 -0.665431 -3.690010
  H 2.751948 -2.306841 -3.037877
  H 3.377042 -1.457571 -5.902541
  H 1.958417 -2.352036 -5.375936
  H 3.549182 -3.089902 -5.260946
 22
 2.357769
  C 1.040899 0.412589 0.543360
  C 2.381754 -0.148152 0.432217
  H 3.004482 -0.183402 1.317217
  C 2.918562 -0.551471 -0.769534
  C 4.306462 -0.572963 -0.965536
  C 5.002191 -0.767661 -2.137240
  C 4.586898 -1.251418 -3.455090
  C 3.151477 -1.672703 -3.731395
  C 3.018898 -2.239583 -5.142630
  H 6.059957 -0.538365 -2.088348
  H 0.800629 0.721482 1.553866
  H 0.281902 -0.281876 0.173315
  H 0.986159 1.271951 -0.131664
  H 2.249241 -0.741037 -1.594179
  H 4.904144 -0.290503 -0.106097
  H 5.258387 -2.094168 -3.690874
  H 4.895926 -0.495858 -4.190749
  H 2.485894 -0.811783 -3.647467
  H 2.840290 -2.435260 -3.015504
  H 3.304912 -1.502945 -5.888290
  H 1.990927 -2.532102 -5.337946
  H 3.646140 -3.118142 -5.272612
 22
 5.698365
  C 1.106764 0.517394 0.497566
  C 2.361666 -0.222053 0.451004
  H 2.940177 -0.330495 1.360434
  C 2.911070 -0.650830 -0.740753
  C 4.289500 -0.570558 -0.959640
  C 4.972805 -0.717847 -2.145430
  C 4.563071 -1.199244 -3.464444
  C 3.152567 -1.707767 -3.721616
  C 3.024398 -2.233761 -5.149174
  H 6.014644 -0.421446 -2.114507
  H 0.870222 0.878470 1.491507
  H 0.269529 -0.059776 0.099284
  H 1.231739 1.355006 -0.194693
  H 2.244607 -0.894786 -1.554330
  H 4.882376 -0.238756 -0.115569
  H 5.280233 -1.991310 -3.728042
  H 4.803745 -0.407790 -4.188958
  H 2.432372 -0.897823 -3.593920
  H 2.913017 -2.514665 -3.027431
  H 3.241125 -1.452877 -5.874490
  H 2.014134 -2.590808 -5.332192
  H 3.707988 -3.061457 -5.324259
 22
 9.554961
  C 1.169680 0.609094 0.561801
  C 2.318029 -0.282269 0.443424
  H 2.817563 -0.611535 1.349482
  C 2.881239 -0.625636 -0.780011
  C 4.249427 -0.501810 -1.004423
  C 4.948514 -0.669126 -2.179251
  C 4.559276 -1.198949 -3.490062
  C 3.158965 -1.745771 -3.733906
  C 3.044249 -2.310320 -5.148721
  H 5.980293 -0.337104 -2.151477
  H 0.940313 0.858735 1.591997
  H 0.277460 0.204968 0.074969
  H 1.420061 1.510978 -0.004614
  H 2.217353 -0.874621 -1.597580
  H 4.823609 -0.134545 -0.163074
  H 5.295967 -1.978617 -3.732844
  H 4.775065 -0.416165 -4.231492
  H 2.420225 -0.949395 -3.627195
  H 2.939341 -2.541381 -3.019759
  H 3.243970 -1.542156 -5.892993
  H 2.042488 -2.695774 -5.323864
  H 3.748374 -3.125742 -5.302391
 22
 15.736527
  C 1.278661 0.712641 0.574908
  C 2.282705 -0.334481 0.444540
  H 2.633339 -0.846308 1.334393
  C 2.862574 -0.659766 -0.783863
  C 4.218710 -0.475246 -1.027219
  C 4.913499 -0.621772 -2.204186
  C 4.531280 -1.168775 -3.511313
  C 3.155529 -1.789988 -3.725374
  C 3.042069 -2.360189 -5.138037
  H 5.943484 -0.280397 -2.175992
  H 1.040930 0.940356 1.605663
  H 0.356570 0.476037 0.037558
  H 1.694081 1.586028 0.061442
  H 2.199644 -0.965312 -1.591245
  H 4.782754 -0.044178 -0.206586
  H 5.305032 -1.908723 -3.772633
  H 4.684725 -0.370184 -4.252987
  H 2.376207 -1.033299 -3.601930
  H 2.996283 -2.597978 -3.008982
  H 3.186814 -1.582852 -5.884950
  H 2.059675 -2.796760 -5.293722
  H 3.784398 -3.136812 -5.305949
 22
 21.959168
  C 1.377903 0.779526 0.615727
  C 2.264756 -0.356174 0.439630
  H 2.510595 -0.976758 1.295730
  C 2.867963 -0.662065 -0.794036
  C 4.198977 -0.406571 -1.067594
  C 4.894260 -0.583532 -2.243100
  C 4.517004 -1.171524 -3.532812
  C 3.141975 -1.799559 -3.732466
  C 3.026760 -2.394351 -5.135289
  H 5.913484 -0.216571 -2.231162
  H 1.136841 0.965519 1.655599
  H 0.444307 0.656052 0.055061
  H 1.861497 1.644419 0.157037
  H 2.216834 -1.049673 -1.570973
  H 4.755834 0.061433 -0.264555
  H 5.289607 -1.914986 -3.771369
  H 4.668539 -0.394762 -4.295022
  H 2.363758 -1.043067 -3.620385
  H 2.986823 -2.597475 -3.003025
  H 3.167350 -1.627619 -5.896697
  H 2.043224 -2.838181 -5.281105
  H 3.773173 -3.172369 -5.291719
 22
 29.679715
  C 1.506618 0.843174 0.653728
  C 2.223027 -0.396133 0.438155
  H 2.319152 -1.106222 1.251553
  C 2.876291 -0.700380 -0.796678
  C 4.169450 -0.340547 -1.095176
  C 4.864461 -0.530929 -2.278690
  C 4.490761 -1.147884 -3.556529
  C 3.130156 -1.808156 -3.740093
  C 3.018300 -2.416791 -5.135941
  H 5.872308 -0.134747 -2.283336
  H 1.237579 0.998297 1.692889
  H 0.588860 0.850048 0.053287
  H 2.078589 1.683711 0.249003
  H 2.271719 -1.216723 -1.533627
  H 4.719047 0.159586 -0.307829
  H 5.276653 -1.878358 -3.793950
  H 4.620175 -0.375945 -4.329041
  H 2.336398 -1.068958 -3.626877
  H 2.999251 -2.604529 -3.005912
  H 3.135021 -1.654721 -5.903798
  H 2.045433 -2.883943 -5.270487
  H 3.780429 -3.177570 -5.291592
 22
 18.647066
  C 1.640859 0.877832 0.704340
  C 2.183202 -0.427848 0.379053
  H 2.065941 -1.229062 1.099249
  C 2.878065 -0.716728 -0.805119
  C 4.142099 -0.242027 -1.147963
  C 4.825917 -0.450777 -2.320495
  C 4.468994 -1.120009 -3.579275
  C 3.112953 -1.789186 -3.763890
  C 3.027833 -2.444359 -5.140550
  H 5.829998 -0.044519 -2.340223
  H 1.358493 0.968445 1.749212
  H 0.739196 1.011220 0.092755
  H 2.277768 1.702783 0.376438
  H 2.375571 -1.400870 -1.477460
  H 4.660010 0.309622 -0.372347
  H 5.258024 -1.856280 -3.782508
  H 4.608325 -0.371628 -4.371827
  H 2.315326 -1.048633 -3.685037
  H 2.970985 -2.565142 -3.010626
  H 3.154838 -1.707055 -5.931692
  H 2.059200 -2.919841 -5.276259
  H 3.795391 -3.206350 -5.257815
 22
 9.919263
  C 1.768948 0.902632 0.687898
  C 2.114956 -0.468432 0.347163
  H 1.753958 -1.261220 0.983590
  C 2.870533 -0.812671 -0.763359
  C 4.094694 -0.235250 -1.130170
  C 4.787104 -0.423836 -2.299981
  C 4.438966 -1.089940 -3.560990
  C 3.121964 -1.844500 -3.724118
  C 3.015477 -2.434966 -5.130971
  H 5.767636 0.036678 -2.332560
  H 1.458423 1.019606 1.716611
  H 0.915377 1.180446 0.057084
  H 2.541712 1.615955 0.389740
  H 2.472399 -1.612351 -1.376723
  H 4.563687 0.385994 -0.381024
  H 5.271353 -1.763704 -3.808898
  H 4.504583 -0.314056 -4.339133
  H 2.279479 -1.167151 -3.566168
  H 3.066682 -2.668481 -3.006672
  H 3.053642 -1.653893 -5.885559
  H 2.076807 -2.968906 -5.248599
  H 3.825584 -3.134438 -5.323019
 22
 11.075143
  C 1.852252 0.906743 0.424718
  C 2.071411 -0.530789 0.335890
  H 1.659479 -1.175969 1.097820
  C 2.904881 -1.018192 -0.652310
  C 4.090143 -0.357230 -1.027205
  C 4.783393 -0.440103 -2.206019
  C 4.422881 -1.020323 -3.505203
  C 3.134435 -1.816323 -3.664111
  C 2.988207 -2.311002 -5.101237
  H 5.737428 0.072354 -2.227875
  H 1.626284 1.262829 1.424226
  H 0.967783 1.137222 -0.186721
  H 2.646427 1.423174 -0.120408
  H 2.594318 -1.886807 -1.217007
  H 4.559407 0.217433 -0.237050
  H 5.270242 -1.646205 -3.818952
  H 4.430466 -0.194685 -4.230010
  H 2.272330 -1.195854 -3.415399
  H 3.165013 -2.693101 -3.015893
  H 2.959342 -1.478872 -5.802262
  H 2.069525 -2.878387 -5.216049
  H 3.818915 -2.959362 -5.375969
