 17
 0.000000
  C 1.002847 0.116556 0.340859
  C 2.467318 0.099789 0.299336
  H 3.019447 0.445863 1.160772
  C 3.121471 -0.351714 -0.824592
  C 4.508512 -0.405202 -0.958866
  C 5.199137 -0.857270 -2.085620
  C 4.576659 -1.354900 -3.325764
  H 3.496094 -1.352593 -3.320838
  O 6.505681 -0.867660 -2.112428
  H 0.615593 0.494588 1.282116
  H 0.609791 -0.888505 0.172833
  H 0.610026 0.726559 -0.475536
  H 2.508492 -0.683768 -1.650771
  H 5.096629 -0.066036 -0.114518
  H 4.940590 -2.365716 -3.515764
  H 4.941075 -0.756107 -4.161789
  H 6.939910 -0.542148 -1.300969
 17
 12.425699
  C 1.077859 0.164445 0.459243
  C 2.524106 0.032005 0.131846
  H 3.194650 0.347655 0.920389
  C 2.941322 -0.438128 -1.039908
  C 4.286963 -0.422220 -0.999797
  C 5.164078 -0.851960 -2.072298
  C 4.688720 -1.374120 -3.372070
  H 3.615152 -1.406626 -3.451888
  O 6.448644 -0.798435 -1.943648
  H 0.916123 0.564214 1.457074
  H 0.594574 -0.813449 0.369651
  H 0.596340 0.811387 -0.280827
  H 2.304556 -0.761908 -1.848334
  H 4.806927 -0.068124 -0.115130
  H 5.099985 -2.371239 -3.528829
  H 5.099508 -0.762418 -4.174965
  H 6.778334 -0.455086 -1.091594
 17
 48.485984
  C 1.107954 0.188279 0.517897
  C 2.597025 -0.012254 0.022314
  H 3.261355 0.296965 0.799276
  C 2.844039 -0.490258 -1.171564
  C 4.158640 -0.423607 -1.003330
  C 5.141742 -0.847862 -2.063770
  C 4.744018 -1.375246 -3.372690
  H 3.667399 -1.428122 -3.498388
  O 6.419095 -0.763087 -1.860109
  H 1.076640 0.588751 1.521984
  H 0.588983 -0.766450 0.482065
  H 0.592423 0.858440 -0.165753
  H 2.201981 -0.804903 -1.961465
  H 4.695381 -0.082199 -0.146137
  H 5.181319 -2.364367 -3.510510
  H 5.178204 -0.756194 -4.158028
  H 6.697319 -0.411848 -0.987802
 17
 96.562047
  C 1.107354 0.199205 0.542973
  C 2.671023 -0.032657 -0.028594
  H 3.263510 0.290765 0.783474
  C 2.794136 -0.518054 -1.234299
  C 4.084791 -0.407746 -0.963200
  C 5.144870 -0.847902 -2.064430
  C 4.766724 -1.375063 -3.374122
  H 3.693233 -1.431979 -3.510492
  O 6.415812 -0.750138 -1.827432
  H 1.127157 0.599856 1.547465
  H 0.596493 -0.750101 0.524056
  H 0.599306 0.877232 -0.125001
  H 2.141365 -0.831635 -2.017851
  H 4.695646 -0.085011 -0.152315
  H 5.210159 -2.364186 -3.508867
  H 5.207306 -0.753360 -4.156969
  H 6.670347 -0.399164 -0.954309
 17
 143.912927
  C 1.067035 0.218691 0.567262
  C 2.733746 -0.039742 -0.043585
  H 3.229127 0.302547 0.820466
  C 2.766126 -0.548656 -1.249941
  C 4.041186 -0.387472 -0.907228
  C 5.176281 -0.851692 -2.089308
  C 4.792178 -1.375304 -3.389849
  H 3.719352 -1.427030 -3.515306
  O 6.443449 -0.754552 -1.838279
  H 1.105410 0.616839 1.569202
  H 0.579625 -0.743161 0.545049
  H 0.578866 0.905431 -0.107946
  H 2.106144 -0.862134 -2.016294
  H 4.745980 -0.100353 -0.160757
  H 5.229383 -2.368629 -3.529358
  H 5.226785 -0.751514 -4.177197
  H 6.691334 -0.397640 -0.957310
 17
 182.650705
  C 0.989397 0.241212 0.598669
  C 2.784727 -0.044246 -0.039209
  H 3.213022 0.327178 0.865830
  C 2.759998 -0.589609 -1.240722
  C 4.027040 -0.367519 -0.835499
  C 5.234697 -0.856430 -2.123924
  C 4.819238 -1.375456 -3.424575
  H 3.740699 -1.414923 -3.525510
  O 6.502974 -0.769216 -1.866773
  H 1.045772 0.657871 1.598824
  H 0.519311 -0.730682 0.572461
  H 0.520513 0.933922 -0.086634
  H 2.105460 -0.918025 -2.012482
  H 4.781943 -0.097700 -0.124665
  H 5.243759 -2.381718 -3.578750
  H 5.246074 -0.746396 -4.225120
  H 6.735517 -0.414520 -0.988801
 17
 208.378845
  C 0.838745 0.271345 0.639592
  C 2.818697 -0.030689 0.022142
  H 3.088142 0.393476 0.967299
  C 2.771371 -0.602999 -1.168435
  C 4.041719 -0.341950 -0.716774
  C 5.330526 -0.876875 -2.191489
  C 4.857583 -1.378800 -3.479202
  H 3.779613 -1.396896 -3.536677
  O 6.611208 -0.817902 -1.975723
  H 0.890155 0.695696 1.623850
  H 0.424965 -0.721007 0.605226
  H 0.438893 0.946544 -0.094399
  H 2.140510 -0.951228 -1.948319
  H 4.871555 -0.097272 -0.092758
  H 5.252217 -2.386449 -3.655215
  H 5.258039 -0.754474 -4.285516
  H 6.874682 -0.471858 -1.105023
 17
 164.261177
  C 0.873510 0.467908 0.459753
  C 2.432047 0.076647 0.689644
  H 2.459028 0.181208 1.756404
  C 2.676421 -0.847453 -0.409112
  C 3.719934 -0.247943 -0.011228
  C 5.587579 -0.901627 -2.571835
  C 5.028045 -1.457071 -3.848481
  H 3.960543 -1.591482 -3.789997
  O 6.885818 -0.839917 -2.621369
  H 0.517610 0.806389 1.425629
  H 0.457605 -0.471941 0.166957
  H 0.825061 1.228810 -0.307125
  H 2.227410 -1.378615 -1.189194
  H 4.577242 0.156716 0.438563
  H 5.516957 -2.384357 -4.082194
  H 5.239107 -0.773149 -4.656349
  H 7.284428 -0.511003 -1.796656
 17
 116.878432
  C 1.180490 0.636426 0.122950
  C 2.269338 -0.186878 0.774271
  H 2.202098 -0.227203 1.859138
  C 2.811560 -1.386891 0.089475
  C 3.675440 -0.404861 0.173556
  C 5.577330 -0.771996 -2.711106
  C 4.837893 -1.381310 -3.759694
  H 3.814363 -1.601557 -3.467293
  O 6.797580 -0.525846 -2.698723
  H 0.564154 1.123365 0.875814
  H 0.532867 0.022058 -0.507394
  H 1.611528 1.410153 -0.514613
  H 2.501824 -2.182196 -0.538525
  H 4.495931 0.180706 0.512814
  H 5.343471 -2.301758 -4.100370
  H 4.815062 -0.696325 -4.601943
  H 7.207166 -0.159620 -1.882481
