 20
 0.000000
  C 0.965413 0.190335 0.524656
  C 2.410667 0.106456 0.318559
  H 3.061673 0.429079 1.121735
  C 2.971875 -0.363062 -0.849416
  C 4.358517 -0.427150 -1.009947
  C 5.108331 -0.864455 -2.102905
  C 4.667540 -1.391458 -3.418434
  C 3.191819 -1.525689 -3.751502
  H 3.105241 -1.928884 -4.758730
  O 6.415931 -0.832679 -2.026271
  H 0.709521 0.583665 1.502502
  H 0.507318 -0.793249 0.396534
  H 0.508643 0.812263 -0.248871
  H 2.310949 -0.679873 -1.638412
  H 4.938541 -0.085324 -0.158285
  H 5.153869 -2.367646 -3.528025
  H 5.152888 -0.760262 -4.171709
  H 2.690566 -0.562246 -3.740215
  H 2.691531 -2.215835 -3.078325
  H 6.778379 -0.496188 -1.184338
 20
 10.300845
  C 0.924600 0.218572 0.594695
  C 2.361376 0.141568 0.406292
  H 3.011686 0.461824 1.203916
  C 2.992037 -0.381448 -0.894825
  C 4.364249 -0.438733 -1.038430
  C 5.124398 -0.874209 -2.127234
  C 4.693405 -1.403074 -3.447488
  C 3.219354 -1.540799 -3.788894
  H 3.138988 -1.943760 -4.795643
  O 6.434301 -0.838451 -2.041130
  H 0.658891 0.610977 1.570326
  H 0.470811 -0.767195 0.460802
  H 0.472449 0.838374 -0.184466
  H 2.331440 -0.696193 -1.678864
  H 4.936363 -0.095078 -0.181979
  H 5.182734 -2.378233 -3.554121
  H 5.181555 -0.770395 -4.197907
  H 2.715981 -0.578251 -3.780666
  H 2.717164 -2.232525 -3.118598
  H 6.788807 -0.500892 -1.196728
 20
 30.678299
  C 0.895644 0.241174 0.650814
  C 2.326321 0.177602 0.496319
  H 3.011540 0.484037 1.259784
  C 3.002999 -0.402863 -0.947550
  C 4.358860 -0.447035 -1.058704
  C 5.136009 -0.880782 -2.143755
  C 4.713929 -1.413389 -3.473396
  C 3.239907 -1.553172 -3.819608
  H 3.161999 -1.955809 -4.825491
  O 6.463247 -0.838929 -2.042899
  H 0.609527 0.631853 1.621789
  H 0.448390 -0.745306 0.498977
  H 0.450436 0.849284 -0.141919
  H 2.306945 -0.703117 -1.695404
  H 4.921158 -0.102328 -0.199376
  H 5.205532 -2.388222 -3.577225
  H 5.204192 -0.778932 -4.221580
  H 2.736533 -0.591098 -3.813896
  H 2.737796 -2.246270 -3.151368
  H 6.806479 -0.498863 -1.192329
 20
 53.264735
  C 0.864387 0.266021 0.712827
  C 2.283559 0.213703 0.585753
  H 3.007342 0.508057 1.318770
  C 3.004198 -0.424571 -1.001404
  C 4.350518 -0.457869 -1.085781
  C 5.153950 -0.893109 -2.174543
  C 4.748857 -1.424124 -3.500223
  C 3.276841 -1.564744 -3.848718
  H 3.199157 -1.968622 -4.857580
  O 6.460431 -0.846280 -2.061005
  H 0.565658 0.657221 1.684683
  H 0.421098 -0.726150 0.556373
  H 0.422934 0.874571 -0.087251
  H 2.265530 -0.711592 -1.715725
  H 4.904176 -0.109158 -0.216827
  H 5.241782 -2.397644 -3.600117
  H 5.240540 -0.787993 -4.244700
  H 2.773800 -0.601469 -3.842572
  H 2.774957 -2.258288 -3.179327
  H 6.790566 -0.503853 -1.204073
 20
 75.702215
  C 0.819865 0.290154 0.772447
  C 2.246011 0.244924 0.663860
  H 2.983611 0.532721 1.381215
  C 3.025601 -0.448601 -1.060669
  C 4.366363 -0.474286 -1.126038
  C 5.170981 -0.900007 -2.191643
  C 4.770857 -1.432471 -3.521218
  C 3.298179 -1.573195 -3.869365
  H 3.218952 -1.975745 -4.875272
  O 6.482482 -0.847002 -2.063469
  H 0.509717 0.679549 1.739922
  H 0.381951 -0.700592 0.611908
  H 0.384150 0.895274 -0.029581
  H 2.272339 -0.728356 -1.757332
  H 4.909642 -0.125834 -0.257455
  H 5.264653 -2.406432 -3.620860
  H 5.263077 -0.795490 -4.265702
  H 2.796143 -0.610601 -3.862175
  H 2.797620 -2.265892 -3.199803
  H 6.801014 -0.504653 -1.207095
 20
 95.948038
  C 0.777522 0.324842 0.858377
  C 2.188537 0.285230 0.764315
  H 2.946463 0.565250 1.462519
  C 3.015512 -0.465572 -1.101939
  C 4.355841 -0.485045 -1.151919
  C 5.190701 -0.913851 -2.226021
  C 4.809950 -1.447342 -3.558537
  C 3.342748 -1.594016 -3.921025
  H 3.274467 -1.997310 -4.929203
  O 6.494654 -0.854866 -2.083701
  H 0.460260 0.714474 1.826041
  H 0.342957 -0.668246 0.695770
  H 0.345414 0.930161 0.053099
  H 2.239342 -0.736472 -1.776859
  H 4.891459 -0.132962 -0.273983
  H 5.308767 -2.418673 -3.653205
  H 5.306878 -0.808443 -4.297524
  H 2.836983 -0.632252 -3.918208
  H 2.838779 -2.289452 -3.255360
  H 6.801735 -0.510194 -1.221866
 20
 113.415040
  C 0.727824 0.349335 0.918651
  C 2.153737 0.315727 0.840682
  H 2.922719 0.591515 1.529264
  C 3.043423 -0.489792 -1.161471
  C 4.372295 -0.502415 -1.194282
  C 5.209961 -0.922023 -2.246299
  C 4.832777 -1.455345 -3.578726
  C 3.362933 -1.600159 -3.935855
  H 3.288700 -2.002908 -4.943051
  O 6.516945 -0.857402 -2.090968
  H 0.396851 0.738313 1.884845
  H 0.297383 -0.645980 0.752423
  H 0.300317 0.954253 0.109354
  H 2.255959 -0.755823 -1.824914
  H 4.897146 -0.150097 -0.315094
  H 5.331262 -2.427340 -3.673871
  H 5.328988 -0.815879 -4.318382
  H 2.859251 -0.638221 -3.929657
  H 2.861390 -2.293807 -3.267711
  H 6.815431 -0.511380 -1.226464
 20
 128.000581
  C 0.685752 0.386030 1.009501
  C 2.087450 0.356344 0.942533
  H 2.867432 0.625512 1.615781
  C 3.026914 -0.505575 -1.200557
  C 4.363266 -0.513675 -1.221748
  C 5.231059 -0.935228 -2.279390
  C 4.873012 -1.470630 -3.616985
  C 3.409268 -1.621868 -3.989323
  H 3.346829 -2.024898 -4.997238
  O 6.529902 -0.864231 -2.109015
  H 0.348952 0.773723 1.972822
  H 0.260165 -0.609115 0.842505
  H 0.263686 0.990964 0.199954
  H 2.224822 -0.763671 -1.845094
  H 4.880454 -0.158027 -0.333318
  H 5.376762 -2.440167 -3.706709
  H 5.374115 -0.828951 -4.351088
  H 2.901549 -0.661263 -3.987863
  H 2.904118 -2.318015 -3.325486
  H 6.815239 -0.517281 -1.243032
 20
 139.720788
  C 0.627845 0.412294 1.074241
  C 2.057227 0.387456 1.019682
  H 2.845673 0.655999 1.690962
  C 3.063733 -0.529140 -1.257423
  C 4.382101 -0.531982 -1.265978
  C 5.250118 -0.943969 -2.300892
  C 4.895371 -1.478373 -3.636668
  C 3.428997 -1.627546 -4.003617
  H 3.360589 -2.030407 -5.011673
  O 6.551232 -0.868048 -2.119208
  H 0.274726 0.800448 2.037900
  H 0.205403 -0.587448 0.904022
  H 0.208927 1.017868 0.258907
  H 2.253087 -0.785438 -1.897436
  H 4.889175 -0.176334 -0.376927
  H 5.398473 -2.448310 -3.726688
  H 5.395603 -0.836164 -4.371014
  H 2.923250 -0.666526 -3.998569
  H 2.925943 -2.321884 -3.337091
  H 6.830361 -0.518858 -1.247899
 20
 147.096272
  C 0.572947 0.461284 1.210896
  C 1.978005 0.423856 1.103160
  H 2.731182 0.712028 1.819202
  C 3.055770 -0.537567 -1.310005
  C 4.383852 -0.543548 -1.323472
  C 5.280619 -0.960465 -2.343585
  C 4.943042 -1.498960 -3.678240
  C 3.481775 -1.649178 -4.061814
  H 3.424023 -2.055509 -5.068809
  O 6.562952 -0.884127 -2.137870
  H 0.181953 0.840536 2.162748
  H 0.175441 -0.543003 1.024019
  H 0.169152 1.057163 0.384202
  H 2.249646 -0.799910 -1.954779
  H 4.882248 -0.177731 -0.428397
  H 5.447542 -2.468992 -3.757533
  H 5.452914 -0.859642 -4.408300
  H 2.975997 -0.687962 -4.063556
  H 2.970540 -2.339239 -3.396827
  H 6.828804 -0.535639 -1.263182
 20
 149.670817
  C 0.504136 0.500383 1.329560
  C 1.914052 0.463239 1.192052
  H 2.643462 0.765729 1.939575
  C 3.071134 -0.537194 -1.355734
  C 4.396674 -0.545454 -1.368024
  C 5.305971 -0.974064 -2.377579
  C 4.981221 -1.518734 -3.712826
  C 3.524650 -1.668208 -4.115235
  H 3.479613 -2.078984 -5.120898
  O 6.575322 -0.904483 -2.157537
  H 0.096156 0.874792 2.284224
  H 0.121570 -0.505364 1.133504
  H 0.101789 1.088941 0.500061
  H 2.274377 -0.808381 -2.008381
  H 4.889019 -0.169075 -0.472432
  H 5.484823 -2.490008 -3.780897
  H 5.502101 -0.884821 -4.439804
  H 3.020416 -0.706408 -4.127674
  H 3.003252 -2.353906 -3.453916
  H 6.834423 -0.555805 -1.278035
 20
 150.612374
  C 0.435089 0.537525 1.436518
  C 1.847015 0.497713 1.274334
  H 2.544225 0.812377 2.051215
  C 3.093595 -0.544099 -1.402232
  C 4.419342 -0.553578 -1.411414
  C 5.335568 -0.987908 -2.409876
  C 5.013801 -1.533629 -3.740204
  C 3.558220 -1.678827 -4.146225
  H 3.514293 -2.091655 -5.151104
  O 6.599862 -0.922130 -2.180714
  H 0.019843 0.906340 2.385909
  H 0.061056 -0.471887 1.233844
  H 0.033125 1.122713 0.602285
  H 2.307488 -0.824324 -2.069088
  H 4.905511 -0.171186 -0.514561
  H 5.514807 -2.506387 -3.803764
  H 5.539686 -0.903603 -4.466727
  H 3.056817 -0.715301 -4.161390
  H 3.032200 -2.360803 -3.484346
  H 6.857068 -0.572736 -1.301181
 20
 151.337463
  C 0.362488 0.580823 1.549352
  C 1.776806 0.532134 1.363467
  H 2.443602 0.857395 2.169767
  C 3.111413 -0.556665 -1.440081
  C 4.435048 -0.566841 -1.446892
  C 5.362050 -1.000905 -2.438956
  C 5.048244 -1.547094 -3.771355
  C 3.596314 -1.694563 -4.187588
  H 3.559909 -2.106999 -5.192912
  O 6.619621 -0.932176 -2.199694
  H -0.055412 0.948178 2.497328
  H -0.009124 -0.428741 1.341868
  H -0.037903 1.163321 0.712247
  H 2.337742 -0.841501 -2.118619
  H 4.914055 -0.183236 -0.545950
  H 5.551837 -2.519113 -3.831963
  H 5.578606 -0.916047 -4.494335
  H 3.092956 -0.732064 -4.205277
  H 3.066609 -2.377370 -3.529476
  H 6.872160 -0.580638 -1.320228
 20
 151.931957
  C 0.294511 0.618227 1.644732
  C 1.709207 0.566955 1.454974
  H 2.360538 0.896156 2.273018
  C 3.125299 -0.571833 -1.477323
  C 4.447614 -0.578692 -1.473615
  C 5.385247 -1.011204 -2.461624
  C 5.077604 -1.556264 -3.794115
  C 3.627473 -1.704931 -4.215246
  H 3.594320 -2.116289 -5.220937
  O 6.642712 -0.938936 -2.214211
  H -0.119407 0.985353 2.591958
  H -0.078491 -0.390901 1.434525
  H -0.106384 1.199044 0.805979
  H 2.354328 -0.857214 -2.159234
  H 4.918693 -0.194821 -0.568124
  H 5.583073 -2.527284 -3.853999
  H 5.610118 -0.924131 -4.514509
  H 3.122923 -0.742858 -4.233359
  H 3.096323 -2.389058 -3.559348
  H 6.892002 -0.585315 -1.333864
