 23
 0.000000
  C 0.988757 0.129269 0.378380
  C 2.461982 0.141138 0.397684
  C 3.225281 0.613874 1.575278
  C 2.433343 1.099515 2.786221
  C 3.378090 1.546319 3.898316
  C 3.118282 -0.317783 -0.741559
  C 4.502533 -0.383175 -0.903197
  C 5.122950 -0.844861 -2.039481
  H 4.588944 -1.203285 -2.910509
  O 6.409648 -0.907525 -2.207112
  H 0.541466 0.489701 1.296641
  H 0.630803 -0.883108 0.181934
  H 0.620021 0.739914 -0.447735
  H 3.885815 1.426698 1.251692
  H 3.886710 -0.196472 1.903027
  H 1.796968 0.299632 3.168771
  H 1.795975 1.941159 2.509661
  H 4.014096 0.725971 4.223411
  H 2.811111 1.891528 4.759373
  H 4.013316 2.364326 3.565924
  H 2.502332 -0.651363 -1.564416
  H 5.126875 -0.047612 -0.086247
  H 6.932761 -0.592593 -1.443935
 23
 2.107754
  C 1.062435 0.139186 0.345047
  C 2.510324 0.081464 0.477380
  C 3.247997 0.569972 1.648381
  C 2.414840 1.104285 2.816921
  C 3.321255 1.562386 3.958307
  C 3.144780 -0.391400 -0.667976
  C 4.514772 -0.357267 -0.903804
  C 5.069857 -0.842320 -2.081858
  H 4.442139 -1.243338 -2.868095
  O 6.313105 -0.871296 -2.372241
  H 0.541762 0.626437 1.148431
  H 0.644368 -0.847642 0.189881
  H 0.943093 0.667533 -0.618877
  H 3.943004 1.357730 1.324835
  H 3.885068 -0.247672 2.017840
  H 1.746820 0.326395 3.188893
  H 1.808745 1.950530 2.490919
  H 3.926049 0.739182 4.330822
  H 2.726572 1.941375 4.785643
  H 3.986495 2.358277 3.632450
  H 2.522049 -0.768095 -1.463940
  H 5.176009 0.041435 -0.144441
  H 6.897252 -0.515294 -1.682798
 23
 8.947472
  C 1.127607 0.158705 0.288443
  C 2.555365 0.010956 0.544641
  C 3.278016 0.508793 1.725187
  C 2.414634 1.121455 2.832023
  C 3.282146 1.578620 4.007891
  C 3.166309 -0.497995 -0.586503
  C 4.491109 -0.353175 -0.915757
  C 4.989777 -0.826426 -2.109377
  H 4.336237 -1.288706 -2.840690
  O 6.228869 -0.774632 -2.497538
  H 0.569589 0.766588 0.977683
  H 0.633783 -0.802564 0.159394
  H 1.244977 0.576031 -0.710899
  H 4.026753 1.249668 1.404778
  H 3.860512 -0.326165 2.145739
  H 1.689057 0.385742 3.190770
  H 1.865272 1.983193 2.444841
  H 3.827218 0.742887 4.438514
  H 2.663969 2.012702 4.789332
  H 4.000263 2.331204 3.693306
  H 2.535606 -0.930272 -1.349797
  H 5.173363 0.118087 -0.225406
  H 6.840034 -0.352411 -1.857503
 23
 18.841679
  C 1.212838 0.187625 0.235649
  C 2.596260 -0.089603 0.631027
  C 3.294101 0.417636 1.818115
  C 2.421503 1.142101 2.833952
  C 3.246495 1.590431 4.032449
  C 3.191811 -0.652911 -0.489950
  C 4.450905 -0.341682 -0.932813
  C 4.926379 -0.802765 -2.142073
  H 4.289400 -1.360670 -2.818915
  O 6.128599 -0.629818 -2.610204
  H 0.667233 0.912794 0.814362
  H 0.620888 -0.717396 0.105343
  H 1.542565 0.521322 -0.767695
  H 4.113485 1.080958 1.510520
  H 3.789715 -0.432694 2.307506
  H 1.627035 0.482512 3.176436
  H 1.965208 2.015648 2.376326
  H 3.700538 0.740058 4.532792
  H 2.618647 2.106439 4.753264
  H 4.036228 2.271364 3.728980
  H 2.558684 -1.155828 -1.211909
  H 5.111589 0.253901 -0.315495
  H 6.717591 -0.130873 -2.025026
 23
 26.365065
  C 1.390666 0.252091 0.117488
  C 2.644612 -0.219238 0.715332
  C 3.283269 0.280255 1.931008
  C 2.435985 1.186469 2.813471
  C 3.206915 1.590783 4.068079
  C 3.284009 -0.908854 -0.320858
  C 4.387994 -0.356114 -0.933184
  C 4.850196 -0.798163 -2.154516
  H 4.292074 -1.512582 -2.736657
  O 5.919078 -0.369137 -2.770458
  H 0.947715 1.106764 0.611938
  H 0.642682 -0.527086 -0.009811
  H 1.837928 0.477990 -0.879637
  H 4.218376 0.796148 1.672217
  H 3.612391 -0.591912 2.518011
  H 1.524129 0.669853 3.107126
  H 2.156774 2.090601 2.266523
  H 3.486442 0.716253 4.654005
  H 2.595959 2.235004 4.698185
  H 4.114229 2.135941 3.810505
  H 2.675497 -1.554209 -0.941060
  H 4.951279 0.421729 -0.425779
  H 6.415509 0.312153 -2.283891
 23
 37.030350
  C 1.572047 0.264357 0.029837
  C 2.707703 -0.308112 0.789102
  C 3.279505 0.177326 2.032013
  C 2.482088 1.237892 2.771764
  C 3.164990 1.605593 4.087324
  C 3.370647 -1.066075 -0.203835
  C 4.341155 -0.366350 -0.909173
  C 4.744456 -0.746689 -2.171793
  H 4.256112 -1.564837 -2.695106
  O 5.641115 -0.140417 -2.903948
  H 1.158756 1.161122 0.463883
  H 0.773438 -0.439757 -0.167931
  H 2.148792 0.432793 -0.909939
  H 4.305190 0.530671 1.860439
  H 3.420034 -0.699313 2.690604
  H 1.470681 0.866217 2.983628
  H 2.393939 2.147510 2.152163
  H 3.248976 0.741855 4.738034
  H 2.594361 2.361628 4.610111
  H 4.160854 1.999314 3.912751
  H 2.798588 -1.816404 -0.758469
  H 4.843998 0.474002 -0.437193
  H 6.071617 0.623023 -2.457769
 23
 48.915884
  C 1.753908 0.291386 -0.039774
  C 2.775134 -0.324392 0.808468
  C 3.274959 0.138140 2.089936
  C 2.515878 1.277957 2.754984
  C 3.111689 1.596808 4.122558
  C 3.475635 -1.156840 -0.109170
  C 4.299359 -0.369417 -0.908721
  C 4.645563 -0.736235 -2.189686
  H 4.219211 -1.613820 -2.655935
  O 5.383325 -0.030744 -3.013451
  H 1.346484 1.206701 0.362103
  H 0.929962 -0.369656 -0.314573
  H 2.437160 0.403503 -0.936022
  H 4.340898 0.386801 2.001083
  H 3.281953 -0.733135 2.760437
  H 1.467324 1.004885 2.878284
  H 2.566923 2.175371 2.132150
  H 3.059695 0.732783 4.784032
  H 2.565452 2.411897 4.593335
  H 4.154545 1.898347 4.033971
  H 2.949121 -1.975238 -0.586349
  H 4.752769 0.515905 -0.475895
  H 5.763647 0.771746 -2.609876
 23
 47.695227
  C 1.970517 0.472396 -0.039082
  C 2.898483 -0.240870 0.826553
  C 3.276450 0.133214 2.182885
  C 2.520554 1.296041 2.802962
  C 2.969375 1.521636 4.237554
  C 3.687160 -1.088873 -0.028678
  C 4.225641 -0.309338 -1.083235
  C 4.515543 -0.818305 -2.325810
  H 4.257237 -1.831859 -2.601684
  O 5.135137 -0.173370 -3.295809
  H 1.567262 1.401074 0.326533
  H 1.151867 -0.169946 -0.360684
  H 2.653534 0.476331 -0.952159
  H 4.355288 0.303004 2.214649
  H 3.139872 -0.762647 2.814308
  H 1.446801 1.092714 2.794257
  H 2.703957 2.212911 2.224705
  H 2.772724 0.639926 4.852235
  H 2.431278 2.360152 4.677665
  H 4.035793 1.742001 4.283342
  H 3.430762 -2.107644 -0.246674
  H 4.628500 0.666309 -0.811169
  H 5.465469 0.702435 -3.027399
 23
 47.995655
  C 2.097217 0.564465 -0.037867
  C 2.971260 -0.202112 0.836517
  C 3.294002 0.132176 2.233686
  C 2.502471 1.277323 2.839910
  C 2.887717 1.474588 4.297599
  C 3.786347 -0.995790 -0.008927
  C 4.164961 -0.252732 -1.181479
  C 4.458101 -0.878362 -2.376778
  H 4.281983 -1.935848 -2.521194
  O 5.018530 -0.313476 -3.423874
  H 1.758271 1.526083 0.317445
  H 1.237361 -0.020439 -0.348833
  H 2.799736 0.457284 -0.976203
  H 4.366496 0.326846 2.303130
  H 3.123549 -0.773014 2.840870
  H 1.431075 1.064183 2.780216
  H 2.710476 2.207632 2.294778
  H 2.671502 0.578175 4.886008
  H 2.327738 2.303353 4.729207
  H 3.950773 1.698509 4.393610
  H 3.748097 -2.066699 -0.069308
  H 4.522207 0.757628 -1.023472
  H 5.346874 0.589967 -3.252828
 23
 49.158482
  C 2.213981 0.653954 -0.025582
  C 3.091809 -0.115865 0.841655
  C 3.336731 0.164876 2.268588
  C 2.490196 1.274039 2.880389
  C 2.788619 1.417512 4.364970
  C 3.927528 -0.886675 0.025147
  C 4.117047 -0.240413 -1.264372
  C 4.398952 -0.959854 -2.420694
  H 4.255672 -2.035497 -2.468597
  O 4.877720 -0.461697 -3.534372
  H 1.896923 1.632307 0.312636
  H 1.345237 0.090014 -0.353997
  H 2.926284 0.430276 -1.026405
  H 4.400964 0.386502 2.408185
  H 3.158560 -0.764679 2.832752
  H 1.430589 1.050238 2.749147
  H 2.706974 2.226217 2.389631
  H 2.554549 0.495245 4.903059
  H 2.188180 2.222700 4.799181
  H 3.842378 1.653028 4.529328
  H 4.098830 -1.946198 0.135838
  H 4.491368 0.782102 -1.233366
  H 5.177903 0.465013 -3.464615
 23
 48.207876
  C 2.309876 0.735874 0.006990
  C 3.231803 0.001088 0.843279
  C 3.412070 0.235831 2.299146
  C 2.459454 1.257512 2.921249
  C 2.676068 1.347421 4.418994
  C 4.088325 -0.746963 0.062003
  C 4.142660 -0.212349 -1.315891
  C 4.318470 -1.048850 -2.430548
  H 4.073908 -2.099954 -2.379523
  O 4.701226 -0.670005 -3.616060
  H 1.990820 1.719354 0.329950
  H 1.472104 0.159925 -0.372508
  H 3.077392 0.432211 -1.103965
  H 4.447939 0.537116 2.490976
  H 3.277136 -0.727249 2.808049
  H 1.424281 0.969214 2.726834
  H 2.630253 2.240782 2.487688
  H 2.486555 0.389394 4.896769
  H 2.004965 2.080092 4.857392
  H 3.697216 1.645979 4.644551
  H 4.474369 -1.718710 0.307271
  H 4.645411 0.756396 -1.387065
  H 4.966698 0.268922 -3.687183
 23
 48.921105
  C 2.243392 0.732741 0.062265
  C 3.247862 0.070367 0.833996
  C 3.442909 0.302705 2.298389
  C 2.439531 1.251117 2.956946
  C 2.681251 1.327987 4.453997
  C 4.141413 -0.636560 0.062827
  C 4.163769 -0.164918 -1.353877
  C 4.334978 -1.099151 -2.404921
  H 4.117810 -2.149459 -2.248370
  O 4.701684 -0.824993 -3.615378
  H 1.853508 1.682661 0.401135
  H 1.484290 0.117314 -0.394152
  H 3.142587 0.419025 -1.254718
  H 4.456649 0.672120 2.475802
  H 3.377624 -0.673183 2.790308
  H 1.420641 0.900384 2.776334
  H 2.537980 2.249583 2.539407
  H 2.561618 0.347657 4.918467
  H 1.974541 2.009528 4.919035
  H 3.690636 1.687583 4.665180
  H 4.671983 -1.520284 0.375132
  H 4.721720 0.769324 -1.484589
  H 4.926918 0.113378 -3.788371
 23
 45.779018
  C 2.121959 0.739938 0.134562
  C 3.232152 0.190385 0.803045
  C 3.468638 0.402869 2.272899
  C 2.420178 1.237386 3.003942
  C 2.715950 1.282637 4.494068
  C 4.177605 -0.455272 0.043155
  C 4.171195 -0.130209 -1.423920
  C 4.391090 -1.186453 -2.358202
  H 4.221164 -2.217070 -2.066055
  O 4.770748 -1.052289 -3.578183
  H 1.647052 1.628569 0.521303
  H 1.453037 0.097627 -0.409830
  H 3.175264 0.402377 -1.453559
  H 4.448483 0.844008 2.428908
  H 3.504686 -0.600142 2.730678
  H 1.424908 0.805655 2.847626
  H 2.416543 2.254046 2.620952
  H 2.695841 0.286774 4.922252
  H 1.972077 1.889423 5.013450
  H 3.702857 1.717658 4.681052
  H 4.883994 -1.164643 0.444061
  H 4.745361 0.780706 -1.648259
  H 4.938815 -0.132427 -3.879455
