19
 0
 C -0.69867009 1.80884891 -1.90839150
 C -1.50838687 0.60366500 -1.44584198
 C -1.07787593 0.19005844 -0.03952144
 C -3.02920094 0.76421607 -1.47993992
 C -3.66853798 2.08937360 -1.80735322
 O -3.75535131 -0.20049642 -1.21387237
 H 0.37169814 1.57548714 -1.91515133
 H -0.84536800 2.67062671 -1.24826643
 H -0.97621644 2.10354442 -2.92583561
 H -1.28383482 -0.21976898 -2.13650089
 H -1.31638749 0.96954960 0.69235749
 H 0.00000000 0.00000000 0.00000000
 H -1.58838413 -0.72615080 0.27669872
 H -2.95257838 2.85865075 -2.09067759
 H -4.22141346 2.44196649 -0.93255816
 H -4.35600130 1.94770022 -2.64637828
 O 2.30000000 0.00000000 0.00000000
 H 3.02318977 0.64263783 0.05458952
 H 2.75036323 -0.84956671 -0.11985406
