17

C 0.958363 -0.017704 -0.006268
C 2.454156 0.000623 0.012364
C 3.16815 0.814335 0.797639
C 4.606251 0.830708 0.812908
C 5.32719 1.646343 1.602198
C 6.765881 1.661013 1.615789
C 7.484668 2.471042 2.399645
H 8.554258283810837 2.4925365771165273 2.420006923583839
H 0.599064 -0.758433 -0.719829
H 0.561924 0.953126 -0.303865
H 0.560771 -0.277025 0.974949
H 2.955782 -0.689639 -0.653275
H 2.655949 1.500729 1.460974
H 5.110233 0.142065 0.146056
H 4.823695 2.335137 2.269196
H 7.272103 0.973038 0.949574
H 6.986524 3.161877 3.068625
