9
 0
 C 0.87366500 0.18715100 0.04775200
 C -0.46739000 -0.48096600 -0.04691700
 O -1.49020300 0.35522500 -0.41704000
 H 0.79695200 1.30004700 0.04371300
 H 1.33531900 -0.16736600 1.01222200
 H 1.58479800 -0.14193600 -0.74703700
 H -0.76065600 -0.99238800 0.91235200
 H -0.39630400 -1.30629400 -0.79303600
 H -1.47618100 1.24652900 -0.01200900
