18

C -3.492039 0.987777 -0.135812
C -2.053516 0.585145 -0.027357
C -1.648862 -0.479923 0.644112
C -0.235585 -0.954038 0.808088
C 0.804897 -0.08403 0.113793
C 2.219726 -0.613085 0.340813
H 2.5369955614745434 -0.36071317940656 0.11816219769905129
H -4.0952 0.167765 -0.522489
H -3.609029 1.848969 -0.787048
H -3.887168 1.246258 0.847549
H -1.344359 1.219006 -0.53107
H -2.386104 -1.100862 1.139995
H -0.010673 -1.010247 1.878036
H -0.172512 -1.971283 0.414498
H 0.593666 -0.067496 -0.958861
H 0.739703 0.936442 0.495036
H 2.425557 -0.594678 1.414254
H 2.268934 -1.653808 0.021131
