 17
 0.000000
  C 1.008541 -0.069751 0.051130
  C 2.504449 -0.082969 0.025182
  C 3.217153 -0.596065 -0.982118
  C 4.654507 -0.608232 -1.005999
  C 5.377261 -1.123265 -2.017096
  C 6.815495 -1.132671 -2.035561
  C 7.532884 -1.642097 -3.035653
  H 8.605760 -1.654336 -3.059672
  H 0.648072 0.396394 0.966245
  H 0.612085 -1.083669 0.011596
  H 0.612084 0.494414 -0.792264
  H 3.008016 0.351428 0.877978
  H 2.704265 -1.028794 -1.831626
  H 5.159008 -0.173488 -0.152530
  H 4.874648 -1.558327 -2.871195
  H 7.320115 -0.697829 -1.181894
  H 7.037026 -2.077930 -3.891251
 17
 1.131395
  C 1.017380 -0.132263 0.064528
  C 2.509665 -0.073779 0.031642
  C 3.248372 -0.492660 -0.999378
  C 4.685835 -0.477548 -1.024801
  C 5.410403 -0.850200 -2.093231
  C 6.841450 -1.003593 -2.090176
  C 7.477451 -1.774436 -2.968975
  H 8.530369 -1.969397 -2.927371
  H 0.627629 0.253252 1.006799
  H 0.673219 -1.156893 -0.058363
  H 0.592012 0.453284 -0.749744
  H 2.999970 0.330231 0.905592
  H 2.760455 -0.900102 -1.876290
  H 5.186533 -0.172267 -0.113527
  H 4.901366 -1.152150 -2.999572
  H 7.387834 -0.505049 -1.298047
  H 6.932236 -2.286039 -3.745708
 17
 3.993272
  C 1.027338 -0.210687 0.044299
  C 2.521138 -0.149593 0.038221
  C 3.273768 -0.467371 -1.016905
  C 4.711013 -0.453724 -1.027320
  C 5.430486 -0.695919 -2.131850
  C 6.863194 -0.921365 -2.138196
  C 7.382556 -1.905820 -2.862054
  H 8.417402 -2.199687 -2.843503
  H 0.626531 0.085999 1.009324
  H 0.685579 -1.221756 -0.176793
  H 0.612707 0.447240 -0.719041
  H 2.999936 0.174557 0.953123
  H 2.798052 -0.792382 -1.934531
  H 5.209382 -0.279735 -0.081762
  H 4.917027 -0.871942 -3.069460
  H 7.477595 -0.309339 -1.491565
  H 6.737917 -2.515590 -3.476574
 17
 6.439625
  C 1.037958 -0.212445 0.025101
  C 2.530738 -0.248100 0.032479
  C 3.275313 -0.439788 -1.057458
  C 4.714136 -0.500388 -1.058669
  C 5.441292 -0.589186 -2.175005
  C 6.880122 -0.856902 -2.183947
  C 7.333815 -1.977164 -2.722601
  H 8.360401 -2.297477 -2.715448
  H 0.645705 -0.040750 1.020989
  H 0.636192 -1.151215 -0.346721
  H 0.676527 0.577789 -0.629215
  H 3.016533 -0.106208 0.987962
  H 2.795297 -0.581227 -2.017536
  H 5.204675 -0.506451 -0.092738
  H 4.946948 -0.585649 -3.138244
  H 7.539146 -0.144086 -1.707987
  H 6.638350 -2.673155 -3.165337
 17
 8.240562
  C 1.044407 -0.225486 -0.013375
  C 2.537337 -0.334633 -0.006023
  C 3.282113 -0.422673 -1.108270
  C 4.716687 -0.556753 -1.105006
  C 5.474648 -0.465731 -2.198852
  C 6.908611 -0.805409 -2.212963
  C 7.264957 -2.031621 -2.546373
  H 8.265001 -2.427928 -2.565754
  H 0.651032 -0.160442 0.997420
  H 0.600034 -1.093292 -0.502427
  H 0.725873 0.659225 -0.566192
  H 3.021383 -0.339556 0.963151
  H 2.806910 -0.415086 -2.081524
  H 5.180103 -0.767660 -0.151029
  H 5.021236 -0.240996 -3.157804
  H 7.628731 -0.047049 -1.929882
  H 6.497211 -2.742523 -2.813067
 17
 7.097954
  C 1.047676 -0.209437 -0.056666
  C 2.528305 -0.424780 -0.063255
  C 3.275938 -0.414658 -1.166082
  C 4.697764 -0.651451 -1.180670
  C 5.490932 -0.407834 -2.226797
  C 6.908750 -0.784156 -2.262336
  C 7.244805 -2.060039 -2.313275
  H 8.241316 -2.463927 -2.347417
  H 0.650493 -0.251598 0.951825
  H 0.549147 -0.969284 -0.656114
  H 0.797636 0.760885 -0.486545
  H 3.000741 -0.598457 0.896513
  H 2.812528 -0.235867 -2.131349
  H 5.127898 -1.055066 -0.274895
  H 5.085840 0.034110 -3.129996
  H 7.646434 0.007141 -2.253792
  H 6.459371 -2.804851 -2.348042
 17
 6.331092
  C 1.030952 -0.237960 -0.141267
  C 2.511934 -0.452701 -0.116216
  C 3.292849 -0.364785 -1.193779
  C 4.712030 -0.631095 -1.195214
  C 5.537614 -0.351380 -2.219113
  C 6.930767 -0.805131 -2.274139
  C 7.199360 -2.086870 -2.115022
  H 8.166867 -2.611314 -2.210390
  H 0.603076 -0.358045 0.851760
  H 0.554180 -0.949586 -0.812073
  H 0.791768 0.766399 -0.502667
  H 2.952780 -0.681281 0.841992
  H 2.853975 -0.132940 -2.154593
  H 5.123094 -1.098943 -0.309396
  H 5.166163 0.176154 -3.086816
  H 7.699812 -0.075125 -2.479641
  H 6.373208 -2.784468 -1.941983
 17
 9.207646
  C 1.074493 -0.394054 -0.209573
  C 2.568781 -0.413493 -0.175834
  C 3.340174 -0.263121 -1.256609
  C 4.761189 -0.463246 -1.245149
  C 5.615382 -0.224559 -2.254124
  C 6.909230 -0.878550 -2.267380
  C 6.975159 -2.151895 -1.889677
  H 7.878319 -2.736032 -1.818353
  H 0.658345 -0.509636 0.785143
  H 0.699763 -1.202843 -0.837204
  H 0.707727 0.541289 -0.631574
  H 3.033510 -0.556809 0.790708
  H 2.865880 -0.100150 -2.216482
  H 5.164367 -0.867139 -0.324342
  H 5.327308 0.388246 -3.097133
  H 7.785547 -0.328081 -2.582068
  H 6.058685 -2.715066 -1.798041
 17
 18.981536
  C 1.144779 -0.514250 -0.240091
  C 2.634098 -0.427553 -0.212393
  C 3.392402 -0.264486 -1.303884
  C 4.813164 -0.363714 -1.289427
  C 5.672835 -0.117473 -2.310587
  C 6.879154 -0.898416 -2.282297
  C 6.737634 -2.132797 -1.777074
  H 7.560553 -2.769613 -1.491113
  H 0.739801 -0.635895 0.759401
  H 0.825444 -1.360089 -0.847589
  H 0.713279 0.383280 -0.682058
  H 3.111044 -0.508045 0.754892
  H 2.904261 -0.176824 -2.267150
  H 5.241720 -0.619378 -0.328033
  H 5.420066 0.540496 -3.130409
  H 7.836472 -0.507944 -2.601287
  H 5.781355 -2.621548 -1.854106
 17
 31.664961
  C 1.198111 -0.586996 -0.257318
  C 2.687324 -0.480402 -0.231474
  C 3.444845 -0.320664 -1.326410
  C 4.863618 -0.346467 -1.308684
  C 5.709496 -0.057453 -2.361164
  C 6.839794 -0.903429 -2.305768
  C 6.536223 -2.061680 -1.654884
  H 7.281298 -2.684164 -1.175150
  H 0.794336 -0.704684 0.744372
  H 0.887655 -1.442142 -0.858348
  H 0.756270 0.302300 -0.707400
  H 3.167039 -0.542454 0.736165
  H 2.962242 -0.266446 -2.295493
  H 5.305162 -0.455870 -0.327424
  H 5.459938 0.634049 -3.151226
  H 7.838150 -0.653323 -2.636509
  H 5.603422 -2.554147 -1.857153
 17
 40.101046
  C 1.258483 -0.695220 -0.274593
  C 2.743030 -0.530916 -0.244864
  C 3.502517 -0.404188 -1.339053
  C 4.941036 -0.352537 -1.318194
  C 5.753360 -0.025400 -2.442000
  C 6.797382 -0.908853 -2.360626
  C 6.310095 -1.938086 -1.528829
  H 6.954712 -2.506692 -0.866336
  H 0.850489 -0.770598 0.729699
  H 0.986574 -1.594441 -0.827436
  H 0.787421 0.149703 -0.777871
  H 3.214988 -0.517416 0.728899
  H 3.030240 -0.425968 -2.314369
  H 5.384957 -0.288172 -0.334813
  H 5.479990 0.660829 -3.226719
  H 7.820521 -0.798703 -2.683736
  H 5.426818 -2.477205 -1.821190
 17
 31.684044
  C 1.301034 -0.762411 -0.283531
  C 2.787244 -0.588117 -0.243844
  C 3.554547 -0.482462 -1.330578
  C 5.026415 -0.397880 -1.317079
  C 5.779659 -0.027140 -2.520369
  C 6.770230 -0.935757 -2.424894
  C 6.132852 -1.816180 -1.459557
  H 6.706292 -2.310613 -0.680425
  H 0.884289 -0.809517 0.718912
  H 1.040428 -1.680320 -0.810440
  H 0.829546 0.063295 -0.816124
  H 3.247098 -0.544284 0.735328
  H 3.100186 -0.548045 -2.311645
  H 5.472087 -0.203018 -0.348853
  H 5.481869 0.650028 -3.302205
  H 7.795743 -0.927885 -2.751870
  H 5.299344 -2.419565 -1.791454
 17
 16.069848
  C 1.342385 -0.800455 -0.272481
  C 2.822386 -0.574870 -0.234827
  C 3.595130 -0.549247 -1.308834
  C 5.072923 -0.418969 -1.290935
  C 5.808945 0.011420 -2.522161
  C 6.718341 -0.971301 -2.468403
  C 5.986162 -1.746422 -1.427786
  H 6.512558 -2.199976 -0.590679
  H 0.917911 -0.776113 0.726970
  H 1.115662 -1.767302 -0.721168
  H 0.851221 -0.037215 -0.874972
  H 3.265434 -0.422814 0.741509
  H 3.162771 -0.696448 -2.291375
  H 5.475769 -0.036000 -0.353948
  H 5.523671 0.719838 -3.279904
  H 7.735493 -1.050377 -2.808784
  H 5.246313 -2.440831 -1.826080
 17
 12.027223
  C 1.361905 -0.770811 -0.234152
  C 2.831958 -0.461838 -0.242831
  C 3.625054 -0.654191 -1.291005
  C 5.087698 -0.431426 -1.266085
  C 5.821822 0.013377 -2.494293
  C 6.625767 -1.048967 -2.539080
  C 5.946007 -1.739031 -1.410438
  H 6.517033 -2.177268 -0.588911
  H 0.953927 -0.699771 0.766768
  H 1.179374 -1.776211 -0.607275
  H 0.816332 -0.079027 -0.878596
  H 3.263808 -0.185461 0.702891
  H 3.214410 -1.017901 -2.219401
  H 5.419670 0.093184 -0.364529
  H 5.511295 0.745951 -3.212005
  H 7.600938 -1.217601 -2.944463
  H 5.269546 -2.513148 -1.798204
 17
 3.694331
  C 1.330817 -0.718682 -0.309106
  C 2.809475 -0.482834 -0.237656
  C 3.656750 -0.786362 -1.209249
  C 5.123676 -0.544799 -1.151096
  C 5.755231 0.034352 -2.398001
  C 6.526030 -1.023011 -2.623351
  C 6.030472 -1.786967 -1.428478
  H 6.767440 -1.994585 -0.653894
  H 0.865075 -0.569101 0.661702
  H 1.116278 -1.731693 -0.647422
  H 0.870050 -0.029658 -1.018111
  H 3.180328 -0.025201 0.670525
  H 3.294952 -1.243155 -2.121760
  H 5.388528 -0.015402 -0.233022
  H 5.594821 0.974522 -2.894218
  H 7.255451 -1.277846 -3.372265
  H 5.481169 -2.699715 -1.656206
