 23
 0.000000
  C 0.965019 0.150926 0.427977
  C 2.439194 0.136059 0.390718
  C 3.220712 0.602546 1.550333
  H 2.616957 0.937835 2.384394
  C 3.041197 -0.331667 -0.772676
  C 4.417310 -0.413134 -0.976702
  C 5.110577 -0.862230 -2.097295
  C 4.621912 -1.385230 -3.402131
  C 3.134779 -1.503244 -3.696919
  H 3.005063 -1.903709 -4.696313
  O 6.429543 -0.852609 -2.074119
  H 0.574027 0.528728 1.367248
  H 0.575845 -0.854816 0.263279
  H 0.575601 0.762437 -0.387211
  H 3.875420 1.421162 1.244719
  H 3.875694 -0.199518 1.896530
  H 2.370989 -0.645733 -1.553349
  H 5.044003 -0.083383 -0.156413
  H 5.088721 -2.369272 -3.524718
  H 5.088994 -0.758495 -4.170464
  H 2.650940 -0.530748 -3.659163
  H 2.650847 -2.180548 -2.998112
  H 6.821967 -0.521253 -1.245015
 23
 0.068216
  C 0.971467 0.235062 0.415685
  C 2.442761 0.152755 0.376887
  C 3.221982 0.503225 1.579793
  H 2.576931 0.773278 2.410567
  C 3.034974 -0.290663 -0.799190
  C 4.411743 -0.361138 -1.006108
  C 5.110424 -0.824584 -2.115906
  C 4.626396 -1.401533 -3.397912
  C 3.138713 -1.568071 -3.670035
  H 3.019824 -2.013756 -4.654306
  O 6.430437 -0.778387 -2.101484
  H 0.602750 0.600314 1.367027
  H 0.533608 -0.746399 0.223857
  H 0.606431 0.886102 -0.380977
  H 3.893132 1.339054 1.370037
  H 3.859873 -0.330139 1.878601
  H 2.364295 -0.611856 -1.577718
  H 5.036979 0.008089 -0.197685
  H 5.118487 -2.376847 -3.489781
  H 5.072450 -0.790774 -4.191415
  H 2.624896 -0.610126 -3.680319
  H 2.674365 -2.237206 -2.949581
  H 6.818578 -0.410421 -1.290812
 23
 1.214344
  C 0.991233 0.326356 0.370610
  C 2.462903 0.177443 0.364944
  C 3.205891 0.374982 1.619720
  H 2.539774 0.560732 2.454827
  C 3.043702 -0.211004 -0.836811
  C 4.415307 -0.285988 -1.049844
  C 5.115081 -0.775178 -2.149410
  C 4.627153 -1.424247 -3.395727
  C 3.141183 -1.648563 -3.610784
  H 3.009193 -2.143019 -4.572851
  O 6.431262 -0.699681 -2.152585
  H 0.616814 0.678151 1.329816
  H 0.512795 -0.633956 0.152323
  H 0.672572 1.019621 -0.406166
  H 3.881679 1.226725 1.530891
  H 3.825354 -0.491002 1.846476
  H 2.309774 -0.493178 -1.576918
  H 5.033223 0.109957 -0.244447
  H 5.146016 -2.387502 -3.437157
  H 5.032679 -0.837582 -4.222685
  H 2.600490 -0.710923 -3.659830
  H 2.722043 -2.296790 -2.850433
  H 6.819585 -0.278557 -1.356613
 23
 2.437725
  C 0.994545 0.337824 0.348772
  C 2.470678 0.202580 0.358229
  C 3.179326 0.363948 1.636019
  H 2.491381 0.474393 2.462907
  C 3.069062 -0.170157 -0.836682
  C 4.436369 -0.255409 -1.056455
  C 5.127350 -0.775553 -2.152420
  C 4.615106 -1.449553 -3.381773
  C 3.122594 -1.649224 -3.576990
  H 2.966248 -2.171154 -4.519228
  O 6.440702 -0.708675 -2.171201
  H 0.602106 0.652271 1.309582
  H 0.527385 -0.608347 0.074420
  H 0.685181 1.061984 -0.408440
  H 3.829297 1.242527 1.601205
  H 3.836853 -0.489101 1.822227
  H 2.347609 -0.478387 -1.575452
  H 5.059174 0.161374 -0.273061
  H 5.124291 -2.424486 -3.425421
  H 5.018646 -0.879365 -4.231107
  H 2.603145 -0.703506 -3.640588
  H 2.695982 -2.258360 -2.784318
  H 6.844937 -0.299040 -1.380122
 23
 3.906526
  C 1.011443 0.401003 0.314903
  C 2.477041 0.219545 0.343105
  C 3.167577 0.304331 1.642651
  H 2.452874 0.357723 2.468612
  C 3.066185 -0.127952 -0.868763
  C 4.441335 -0.226311 -1.079171
  C 5.135076 -0.764027 -2.158295
  C 4.616984 -1.474598 -3.369875
  C 3.112610 -1.685182 -3.525819
  H 2.943549 -2.236219 -4.451403
  O 6.450974 -0.687725 -2.177986
  H 0.621072 0.694200 1.283802
  H 0.512972 -0.515620 0.012443
  H 0.736513 1.175475 -0.405845
  H 3.804317 1.181186 1.678943
  H 3.816071 -0.571975 1.796113
  H 2.318439 -0.423410 -1.580598
  H 5.058395 0.217470 -0.303293
  H 5.116768 -2.444018 -3.367410
  H 4.997138 -0.921788 -4.233621
  H 2.582339 -0.743943 -3.616516
  H 2.709412 -2.290036 -2.720680
  H 6.848105 -0.235096 -1.412446
 23
 4.813985
  C 1.028493 0.494832 0.308339
  C 2.478041 0.232086 0.352472
  C 3.130684 0.221789 1.674311
  H 2.403165 0.249643 2.479676
  C 3.066563 -0.084555 -0.875902
  C 4.434764 -0.179552 -1.102435
  C 5.122726 -0.740087 -2.173455
  C 4.614375 -1.501526 -3.346638
  C 3.116941 -1.739548 -3.511315
  H 2.955642 -2.337522 -4.413173
  O 6.438953 -0.655644 -2.203914
  H 0.637672 0.805935 1.279357
  H 0.484785 -0.392848 -0.007890
  H 0.809205 1.275616 -0.415399
  H 3.779859 1.080247 1.769505
  H 3.774982 -0.648931 1.780270
  H 2.305598 -0.425774 -1.569385
  H 5.052360 0.307460 -0.354979
  H 5.133127 -2.468871 -3.313885
  H 5.004915 -0.988355 -4.235249
  H 2.578665 -0.803371 -3.636195
  H 2.710887 -2.293241 -2.667373
  H 6.831184 -0.172106 -1.463592
 23
 7.925827
  C 1.046837 0.611958 0.264269
  C 2.491907 0.234499 0.346449
  C 3.074224 0.125086 1.695916
  H 2.311692 0.208036 2.460011
  C 3.098936 -0.031370 -0.866093
  C 4.462860 -0.134210 -1.112923
  C 5.125182 -0.707886 -2.187159
  C 4.589989 -1.479973 -3.336745
  C 3.110264 -1.798561 -3.427875
  H 2.946127 -2.432068 -4.293002
  O 6.441356 -0.602925 -2.269513
  H 0.671306 0.960326 1.215704
  H 0.447472 -0.260192 -0.009702
  H 0.890736 1.370167 -0.498012
  H 3.839528 0.882460 1.852071
  H 3.572891 -0.847223 1.792020
  H 2.316108 -0.424110 -1.545727
  H 5.089729 0.370538 -0.390935
  H 5.162073 -2.424047 -3.338333
  H 4.926218 -0.980284 -4.252429
  H 2.521976 -0.902906 -3.574814
  H 2.765204 -2.331745 -2.548718
  H 6.865790 -0.139508 -1.519447
 23
 10.600182
  C 1.071180 0.677658 0.259454
  C 2.468896 0.206972 0.367096
  C 3.030535 0.092139 1.726431
  H 2.298471 0.345023 2.484884
  C 3.092920 -0.087168 -0.848133
  C 4.437156 -0.161718 -1.102482
  C 5.115962 -0.687859 -2.197666
  C 4.600415 -1.501294 -3.330733
  C 3.122356 -1.864459 -3.414199
  H 2.975486 -2.484134 -4.298124
  O 6.421348 -0.529246 -2.299291
  H 0.679562 1.006919 1.214206
  H 0.421566 -0.118670 -0.113032
  H 1.013928 1.510606 -0.439996
  H 3.890297 0.754718 1.833624
  H 3.394981 -0.921600 1.887390
  H 2.293666 -0.527002 -1.473068
  H 5.083164 0.357653 -0.398864
  H 5.199976 -2.422656 -3.356124
  H 4.877316 -0.976743 -4.245738
  H 2.505703 -0.973741 -3.538025
  H 2.811434 -2.437974 -2.542915
  H 6.813559 0.020447 -1.593318
 23
 14.549786
  C 1.102675 0.726248 0.239313
  C 2.477625 0.186944 0.358273
  C 2.960439 -0.026457 1.729432
  H 2.197910 0.198473 2.459914
  C 3.108653 0.000076 -0.863248
  C 4.464449 -0.043178 -1.158164
  C 5.116368 -0.624881 -2.236909
  C 4.583389 -1.519520 -3.307122
  C 3.111107 -1.887840 -3.326274
  H 2.943895 -2.592317 -4.138383
  O 6.420359 -0.460013 -2.367051
  H 0.724369 1.075051 1.192770
  H 0.411355 -0.036608 -0.130282
  H 1.075806 1.544803 -0.477003
  H 3.846781 0.585060 1.926619
  H 3.280511 -1.059974 1.851066
  H 2.335078 -0.503869 -1.453086
  H 5.092808 0.541262 -0.496184
  H 5.162256 -2.452032 -3.195054
  H 4.891311 -1.115503 -4.270407
  H 2.486815 -1.019713 -3.519197
  H 2.814426 -2.372278 -2.401786
  H 6.830846 0.090345 -1.674153
 23
 18.996910
  C 1.090494 0.812607 0.234562
  C 2.459380 0.220659 0.335470
  C 2.907870 -0.149022 1.690841
  H 2.119495 -0.039007 2.430613
  C 3.134400 0.065961 -0.862663
  C 4.473030 0.033043 -1.187076
  C 5.115764 -0.626343 -2.222173
  C 4.588376 -1.588058 -3.233532
  C 3.115308 -1.942419 -3.228803
  H 2.933089 -2.645196 -4.031983
  O 6.422154 -0.439549 -2.397233
  H 0.725954 1.141085 1.203466
  H 0.359443 0.090500 -0.127480
  H 1.101356 1.634365 -0.480440
  H 3.745995 0.470912 1.996736
  H 3.290223 -1.173133 1.683501
  H 2.388254 -0.505743 -1.407887
  H 5.091373 0.750591 -0.641509
  H 5.184639 -2.500156 -3.122663
  H 4.865403 -1.177898 -4.221444
  H 2.494589 -1.068341 -3.407870
  H 2.825983 -2.431521 -2.301046
  H 6.827477 0.184851 -1.770698
 23
 28.447876
  C 1.137440 0.949062 0.209469
  C 2.428498 0.200460 0.282984
  C 2.761388 -0.392507 1.592925
  H 1.915429 -0.384034 2.272429
  C 3.216361 0.176273 -0.836675
  C 4.534840 0.158729 -1.242913
  C 5.138316 -0.555598 -2.265855
  C 4.580659 -1.614971 -3.152907
  C 3.138282 -2.069761 -2.974117
  H 2.931051 -2.847505 -3.702430
  O 6.408833 -0.311540 -2.570890
  H 0.745169 1.130188 1.213054
  H 0.365250 0.400035 -0.334737
  H 1.277416 1.896578 -0.291601
  H 3.596851 0.155450 2.040662
  H 3.132892 -1.404308 1.464138
  H 2.389816 -0.351270 -1.378274
  H 5.156131 0.897680 -0.742201
  H 5.254162 -2.476438 -3.076826
  H 4.723343 -1.249643 -4.178055
  H 2.442454 -1.255593 -3.157448
  H 2.979219 -2.494169 -1.987632
  H 6.821433 0.378732 -2.031075
 23
 38.761121
  C 1.142991 0.880056 0.152770
  C 2.479331 0.198847 0.297981
  C 2.699013 -0.437128 1.615927
  H 1.820772 -0.367855 2.247283
  C 3.307565 0.224971 -0.798057
  C 4.590744 0.219552 -1.286057
  C 5.149108 -0.507091 -2.323073
  C 4.547305 -1.588410 -3.157185
  C 3.120049 -2.037234 -2.870392
  H 2.871835 -2.848404 -3.548758
  O 6.423660 -0.320874 -2.643958
  H 0.705660 1.074031 1.134531
  H 0.431257 0.271558 -0.407321
  H 1.247425 1.821585 -0.359829
  H 3.546831 0.039994 2.105701
  H 2.961169 -1.484660 1.504095
  H 2.437449 -0.392049 -1.194987
  H 5.257120 0.903596 -0.758355
  H 5.220036 -2.446906 -3.073250
  H 4.623665 -1.259890 -4.200702
  H 2.409777 -1.233901 -3.054596
  H 3.025512 -2.416585 -1.855127
  H 6.866612 0.368604 -2.114253
 23
 51.399535
  C 1.181910 0.852294 0.108365
  C 2.479950 0.078242 0.303477
  C 2.610237 -0.510331 1.664894
  H 1.715342 -0.355461 2.253257
  C 3.396570 0.139063 -0.690319
  C 4.632650 0.175202 -1.253823
  C 5.155172 -0.499324 -2.341864
  C 4.533778 -1.581336 -3.161245
  C 3.124244 -2.037496 -2.805396
  H 2.832057 -2.829487 -3.490137
  O 6.399899 -0.234087 -2.758124
  H 0.709711 1.062432 1.060358
  H 0.460641 0.295831 -0.488685
  H 1.365196 1.797392 -0.390434
  H 3.462075 -0.049846 2.164386
  H 2.814965 -1.579637 1.618143
  H 2.417410 -0.509916 -0.971778
  H 5.278201 0.906238 -0.778300
  H 5.215686 -2.435788 -3.118421
  H 4.555756 -1.242582 -4.202141
  H 2.410796 -1.227336 -2.924620
  H 3.088412 -2.444420 -1.798483
  H 6.835535 0.475593 -2.251357
