 14
 0.000000
  C 0.958184 0.142092 0.404345
  C 2.411992 0.101944 0.307226
  H 2.995010 0.441780 1.154061
  C 3.075466 -0.348373 -0.813345
  C 4.468696 -0.382644 -0.900015
  C 5.143806 -0.831087 -2.019042
  H 4.623945 -1.186393 -2.903010
  O 6.431229 -0.870340 -2.120841
  H 0.617089 0.526163 1.360216
  H 0.539446 -0.854670 0.243235
  H 0.540902 0.751402 -0.401542
  H 2.499294 -0.689687 -1.663252
  H 5.072526 -0.047338 -0.065987
  H 6.906163 -0.549292 -1.322400
 14
 2.915227
  C 0.934216 0.128831 0.409787
  C 2.387045 0.103141 0.332748
  H 2.976070 0.425234 1.185390
  C 3.059953 -0.297360 -0.798648
  C 4.458283 -0.372839 -0.862944
  C 5.138361 -0.881381 -1.955321
  H 4.627098 -1.295044 -2.820345
  O 6.416264 -1.001284 -2.042888
  H 0.579819 0.431454 1.390197
  H 0.527104 -0.851467 0.149219
  H 0.519755 0.803491 -0.344436
  H 2.506750 -0.577316 -1.683868
  H 5.071093 -0.077603 -0.029188
  H 6.978904 -0.384187 -1.530512
 14
 8.561340
  C 0.926977 0.158188 0.380717
  C 2.378615 0.078363 0.341641
  H 2.936754 0.363842 1.220430
  C 3.073580 -0.344420 -0.772742
  C 4.469799 -0.416896 -0.808786
  C 5.151957 -0.877427 -1.921773
  H 4.599877 -1.241049 -2.786229
  O 6.444859 -1.028497 -2.001532
  H 0.549309 0.486421 1.342352
  H 0.486650 -0.806199 0.113271
  H 0.565512 0.828290 -0.405384
  H 2.522691 -0.633499 -1.658916
  H 5.034073 -0.137205 0.068853
  H 7.020269 -0.258907 -1.844733
 14
 13.819263
  C 0.908678 0.170487 0.374938
  C 2.357982 0.085384 0.352739
  H 2.910328 0.371626 1.238520
  C 3.064174 -0.343805 -0.752197
  C 4.461749 -0.428589 -0.766509
  C 5.163368 -0.848251 -1.876151
  H 4.633292 -1.148249 -2.780611
  O 6.466681 -1.015047 -1.878689
  H 0.520296 0.503137 1.330936
  H 0.466600 -0.793225 0.103707
  H 0.559071 0.837646 -0.419816
  H 2.524413 -0.629713 -1.645688
  H 5.024125 -0.160656 0.117899
  H 7.056583 -0.275299 -2.094456
 14
 11.261730
  C 0.894489 0.165476 0.366483
  C 2.344491 0.087207 0.354299
  H 2.889947 0.408303 1.232260
  C 3.058073 -0.377345 -0.728874
  C 4.455611 -0.459965 -0.729865
  C 5.177928 -0.818977 -1.851731
  H 4.676727 -0.940984 -2.811727
  O 6.469274 -0.993098 -1.799428
  H 0.500026 0.512882 1.314722
  H 0.455857 -0.802575 0.106877
  H 0.550186 0.823635 -0.438125
  H 2.524114 -0.696809 -1.614344
  H 5.013658 -0.151937 0.146180
  H 7.094366 -0.419131 -2.275432
 14
 4.075606
  C 0.880962 0.132222 0.345640
  C 2.336397 0.072027 0.350866
  H 2.864108 0.344071 1.255243
  C 3.071645 -0.322263 -0.743835
  C 4.467602 -0.390068 -0.726271
  C 5.212028 -0.768494 -1.828662
  H 4.721993 -0.989818 -2.773834
  O 6.502125 -0.896578 -1.730378
  H 0.470782 0.431422 1.303496
  H 0.459599 -0.830005 0.042768
  H 0.538655 0.821705 -0.431860
  H 2.554590 -0.597910 -1.653542
  H 5.017307 -0.071107 0.148487
  H 7.024460 -0.729502 -2.538636
 14
 6.798837
  C 0.883735 0.105646 0.380130
  C 2.339840 0.046749 0.361851
  H 2.876867 0.167991 1.293113
  C 3.061471 -0.197269 -0.782243
  C 4.456561 -0.292151 -0.782196
  C 5.216273 -0.838301 -1.799530
  H 4.783029 -1.384025 -2.632578
  O 6.507991 -0.810891 -1.643614
  H 0.485910 0.279607 1.373638
  H 0.458758 -0.816587 -0.025228
  H 0.531809 0.881755 -0.305243
  H 2.538935 -0.322901 -1.721702
  H 5.072769 0.160480 -0.013762
  H 7.071481 -0.775164 -2.439852
 14
 16.297581
  C 0.878803 0.107700 0.397812
  C 2.333104 0.008551 0.343302
  H 2.888987 0.014636 1.271424
  C 3.022685 -0.148367 -0.831155
  C 4.419034 -0.272212 -0.871247
  C 5.218975 -0.953118 -1.763731
  H 4.905531 -1.749459 -2.429954
  O 6.499958 -0.729013 -1.586108
  H 0.506115 0.178694 1.413816
  H 0.412345 -0.747437 -0.097906
  H 0.544059 0.971297 -0.183871
  H 2.482013 -0.157241 -1.769372
  H 5.112687 0.310683 -0.266442
  H 7.073056 -0.631764 -2.368535
 14
 29.098737
  C 0.873084 0.106940 0.426215
  C 2.328374 -0.034546 0.335030
  H 2.903448 -0.084299 1.251618
  C 2.990196 -0.120108 -0.870626
  C 4.371105 -0.322815 -0.959931
  C 5.230675 -1.045735 -1.744435
  H 5.050327 -1.915851 -2.359499
  O 6.480241 -0.658563 -1.522075
  H 0.527194 0.160230 1.453792
  H 0.365353 -0.719692 -0.078277
  H 0.556630 1.001412 -0.120508
  H 2.439294 0.038035 -1.791316
  H 5.149224 0.288936 -0.481912
  H 7.056767 -0.494923 -2.290063
 14
 51.447464
  C 0.883056 0.169218 0.460429
  C 2.313147 -0.091810 0.309587
  H 2.908273 -0.232696 1.201483
  C 2.916246 -0.190451 -0.918022
  C 4.269765 -0.453158 -1.087846
  C 5.227424 -1.121996 -1.750143
  H 5.246991 -2.057883 -2.283901
  O 6.413978 -0.516750 -1.438009
  H 0.578545 0.187054 1.501616
  H 0.294582 -0.582666 -0.070478
  H 0.623904 1.120269 -0.011222
  H 2.333367 0.019339 -1.809307
  H 5.258065 0.221853 -0.674179
  H 6.994337 -0.234297 -2.172233
 14
 63.215950
  C 0.883328 0.187582 0.467620
  C 2.306395 -0.136402 0.294382
  H 2.897915 -0.331599 1.176777
  C 2.893950 -0.225200 -0.940544
  C 4.217087 -0.529512 -1.148871
  C 5.204403 -1.149065 -1.747815
  H 5.296508 -2.084815 -2.267893
  O 6.392909 -0.456366 -1.385277
  H 0.591168 0.188975 1.512364
  H 0.257356 -0.521226 -0.077791
  H 0.664381 1.165273 0.033053
  H 2.308031 0.036185 -1.817093
  H 5.485515 0.201133 -0.743552
  H 6.962717 -0.152805 -2.125446
 14
 54.295529
  C 0.872831 0.208690 0.466630
  C 2.293351 -0.136126 0.269637
  H 2.897257 -0.325212 1.142393
  C 2.847392 -0.254080 -0.965009
  C 4.151610 -0.583632 -1.210473
  C 5.171425 -1.141064 -1.771559
  H 5.306447 -2.037516 -2.347010
  O 6.389601 -0.444179 -1.321562
  H 0.614545 0.265763 1.519087
  H 0.227505 -0.527829 -0.016396
  H 0.642819 1.164135 -0.009321
  H 2.239524 0.000317 -1.829435
  H 5.744746 0.140611 -0.756568
  H 6.972042 -0.102112 -2.041815
 14
 45.473469
  C 0.857012 0.197461 0.466245
  C 2.273956 -0.175077 0.277004
  H 2.860971 -0.411006 1.151499
  C 2.852209 -0.248430 -0.964690
  C 4.143533 -0.579366 -1.202743
  C 5.191873 -1.132951 -1.713124
  H 5.334325 -2.090580 -2.185531
  O 6.443679 -0.446176 -1.384829
  H 0.573717 0.179147 1.513658
  H 0.202629 -0.476147 -0.090177
  H 0.669134 1.196358 0.067191
  H 2.263697 0.053054 -1.825988
  H 5.995624 0.250025 -0.794669
  H 6.990597 -0.181845 -2.161913
 14
 41.701830
  C 0.795821 0.191140 0.469148
  C 2.219472 -0.164017 0.281168
  H 2.808830 -0.385547 1.157747
  C 2.799634 -0.237193 -0.962724
  C 4.090426 -0.549279 -1.202641
  C 5.161617 -1.077349 -1.678313
  H 5.293350 -2.046298 -2.135731
  O 6.454243 -0.457844 -1.411428
  H 0.522698 0.197886 1.519723
  H 0.149557 -0.513985 -0.056779
  H 0.585901 1.175087 0.045745
  H 2.202684 0.041825 -1.825096
  H 6.284832 0.304582 -0.815027
  H 7.047748 -0.296957 -2.182284
 14
 38.033208
  C 0.803684 0.211795 0.465485
  C 2.190991 -0.259194 0.261608
  H 2.733136 -0.653006 1.107638
  C 2.800771 -0.223039 -0.974796
  C 4.055996 -0.630618 -1.230320
  C 5.199516 -1.131146 -1.531978
  H 5.417090 -2.145270 -1.831321
  O 6.448923 -0.371613 -1.421354
  H 0.500422 0.117154 1.503678
  H 0.108607 -0.358290 -0.154402
  H 0.700180 1.255503 0.162680
  H 2.243352 0.182000 -1.811932
  H 6.282909 0.529897 -1.059356
  H 6.931236 -0.342122 -2.282122
