 20
 0.000000
  C 0.991705 0.129669 0.372750
  C 2.463206 0.144736 0.413349
  C 3.211604 0.620587 1.597797
  C 2.395333 1.100668 2.790409
  H 3.063556 1.419356 3.584644
  C 3.129917 -0.311800 -0.720762
  C 4.514778 -0.378929 -0.889440
  C 5.101794 -0.842840 -2.045282
  H 4.540254 -1.189799 -2.904548
  O 6.384250 -0.920150 -2.246203
  H 0.530264 0.495699 1.281493
  H 0.637869 -0.884694 0.180628
  H 0.639467 0.729313 -0.468333
  H 3.872930 1.434513 1.280243
  H 3.871712 -0.187419 1.932483
  H 1.763060 0.306776 3.180926
  H 1.764427 1.944889 2.522491
  H 2.515702 -0.644022 -1.546983
  H 5.159449 -0.054505 -0.083999
  H 6.930556 -0.614266 -1.494133
 20
 10.280213
  C 0.980499 0.133509 0.382007
  C 2.449586 0.146452 0.417570
  C 3.201438 0.620529 1.597746
  C 2.390223 1.101558 2.792775
  H 3.062329 1.419155 3.584511
  C 3.112737 -0.311554 -0.719996
  C 4.498034 -0.380176 -0.892546
  C 5.067807 -0.841247 -2.040696
  H 4.505288 -1.186174 -2.894053
  O 6.506125 -0.930712 -2.273254
  H 0.522916 0.500236 1.292405
  H 0.624657 -0.880332 0.190283
  H 0.626377 0.733102 -0.458446
  H 3.863340 1.433083 1.277600
  H 3.862042 -0.188353 1.929588
  H 1.758507 0.308763 3.186247
  H 1.759964 1.947111 2.527816
  H 2.495940 -0.643408 -1.545009
  H 5.147849 -0.056932 -0.090685
  H 7.045822 -0.625834 -1.524594
 20
 30.641816
  C 0.972223 0.137627 0.391582
  C 2.435320 0.147897 0.421253
  C 3.190708 0.618527 1.593104
  C 2.388767 1.100929 2.791374
  H 3.067552 1.416507 3.578522
  C 3.094527 -0.312626 -0.722039
  C 4.488419 -0.382530 -0.897934
  C 5.022829 -0.837251 -2.029537
  H 4.476847 -1.181767 -2.880683
  O 6.618301 -0.935693 -2.286854
  H 0.519115 0.505276 1.303950
  H 0.613769 -0.875660 0.198588
  H 0.615861 0.736046 -0.449490
  H 3.854899 1.428343 1.268419
  H 3.853369 -0.191690 1.919818
  H 1.757932 0.310185 3.190361
  H 1.759673 1.949025 2.531836
  H 2.475500 -0.644410 -1.546572
  H 5.145897 -0.060796 -0.100549
  H 7.121493 -0.627145 -1.531530
 20
 52.760689
  C 0.950715 0.141748 0.401747
  C 2.416417 0.150618 0.427647
  C 3.179069 0.620193 1.596834
  C 2.386855 1.104260 2.799945
  H 3.072123 1.417918 3.582373
  C 3.069286 -0.309662 -0.715095
  C 4.469582 -0.380457 -0.893273
  C 4.997077 -0.846710 -2.052653
  H 4.472186 -1.198012 -2.920245
  O 6.751928 -0.950138 -2.322116
  H 0.500097 0.509750 1.315154
  H 0.589990 -0.870880 0.206990
  H 0.591957 0.738453 -0.440092
  H 3.845754 1.427278 1.267940
  H 3.844510 -0.190834 1.918407
  H 1.756728 0.315396 3.204316
  H 1.758233 1.954623 2.545873
  H 2.450055 -0.640945 -1.538049
  H 5.129198 -0.059310 -0.097379
  H 7.225385 -0.629849 -1.538936
 20
 71.999727
  C 0.940104 0.146240 0.414444
  C 2.405985 0.150119 0.426381
  C 3.179150 0.617598 1.589064
  C 2.402509 1.103873 2.798405
  H 3.095647 1.415611 3.574862
  C 3.046392 -0.313723 -0.725796
  C 4.448520 -0.387922 -0.911854
  C 4.923975 -0.850593 -2.064735
  H 4.514741 -1.219596 -2.980965
  O 6.847775 -0.934304 -2.281504
  H 0.501316 0.515975 1.332341
  H 0.571233 -0.863413 0.217633
  H 0.572471 0.738923 -0.426830
  H 3.854272 1.416186 1.253996
  H 3.854182 -0.190650 1.900141
  H 1.772597 0.318467 3.210017
  H 1.773195 1.956142 2.552043
  H 2.425914 -0.644218 -1.547449
  H 5.113072 -0.070667 -0.122840
  H 7.187626 -0.595780 -1.446787
 20
 90.443533
  C 0.924700 0.151528 0.428591
  C 2.386927 0.151599 0.429521
  C 3.168453 0.615320 1.582265
  C 2.403309 1.103141 2.796569
  H 3.103133 1.412957 3.567677
  C 3.013581 -0.311861 -0.722426
  C 4.426017 -0.390094 -0.918571
  C 4.887930 -0.852629 -2.071379
  H 4.511560 -1.224675 -2.996317
  O 6.972299 -0.937110 -2.286373
  H 0.493802 0.522463 1.350133
  H 0.551588 -0.856745 0.232941
  H 0.552076 0.743769 -0.410750
  H 3.844264 1.411868 1.241874
  H 3.844912 -0.194635 1.887761
  H 1.774060 0.319411 3.213267
  H 1.773950 1.957263 2.555381
  H 2.386949 -0.640787 -1.540049
  H 5.096842 -0.073747 -0.130993
  H 7.284415 -0.594858 -1.439406
 20
 105.856069
  C 0.900220 0.155801 0.440201
  C 2.367387 0.152802 0.431771
  C 3.160657 0.616099 1.582939
  C 2.406442 1.105792 2.803378
  H 3.112770 1.413795 3.569525
  C 2.985974 -0.313687 -0.728487
  C 4.399909 -0.394666 -0.931815
  C 4.853358 -0.856972 -2.083824
  H 4.513749 -1.234494 -3.022837
  O 7.099385 -0.937777 -2.285158
  H 0.476138 0.527477 1.364351
  H 0.522833 -0.851501 0.245740
  H 0.522472 0.747914 -0.397422
  H 3.837151 1.410757 1.238294
  H 3.838597 -0.194938 1.883601
  H 1.777936 0.323915 3.224870
  H 1.777016 1.961462 2.567446
  H 2.355608 -0.641563 -1.543027
  H 5.071755 -0.079026 -0.145963
  H 7.382390 -0.594308 -1.432405
 20
 117.949198
  C 0.886314 0.161607 0.454500
  C 2.348346 0.152814 0.431922
  C 3.151566 0.611291 1.571095
  C 2.410417 1.103263 2.797006
  H 3.124056 1.408764 3.557084
  C 2.946943 -0.312393 -0.724916
  C 4.367904 -0.397960 -0.939655
  C 4.811490 -0.858334 -2.087196
  H 4.510034 -1.239237 -3.035046
  O 7.219007 -0.932645 -2.273147
  H 0.474157 0.535193 1.383256
  H 0.502864 -0.843476 0.263610
  H 0.502564 0.754548 -0.379086
  H 3.828159 1.402971 1.220548
  H 3.829526 -0.201739 1.865507
  H 1.782304 0.323753 3.223741
  H 1.781531 1.960943 2.566464
  H 2.309146 -0.638109 -1.534038
  H 5.044142 -0.082276 -0.153860
  H 7.480809 -0.586363 -1.412198
 20
 126.043001
  C 0.857931 0.169474 0.474469
  C 2.324534 0.147012 0.417440
  C 3.157841 0.600169 1.542796
  C 2.446474 1.098001 2.783703
  H 3.177594 1.397597 3.529369
  C 2.880548 -0.320011 -0.743801
  C 4.305594 -0.413390 -0.978669
  C 4.751727 -0.863581 -2.101097
  H 4.573780 -1.254791 -3.075024
  O 7.325858 -0.891282 -2.169974
  H 0.476945 0.547582 1.414368
  H 0.459405 -0.831106 0.296977
  H 0.458866 0.768240 -0.346379
  H 3.832682 1.387486 1.180930
  H 3.833777 -0.217807 1.826058
  H 1.820352 0.323612 3.222793
  H 1.819579 1.960592 2.565829
  H 2.231191 -0.641633 -1.542097
  H 4.971869 -0.094526 -0.185199
  H 7.546138 -0.543227 -1.302228
 20
 131.145649
  C 0.836000 0.177148 0.495531
  C 2.303037 0.147112 0.417450
  C 3.150518 0.597379 1.534681
  C 2.451854 1.097832 2.782853
  H 3.190533 1.395258 3.522088
  C 2.841504 -0.325271 -0.758277
  C 4.269030 -0.425006 -1.009811
  C 4.713549 -0.872657 -2.127013
  H 4.601195 -1.266470 -3.108802
  O 7.448102 -0.878933 -2.135261
  H 0.473213 0.557602 1.442095
  H 0.429354 -0.821338 0.325792
  H 0.427817 0.779440 -0.317964
  H 3.823070 1.384167 1.167040
  H 3.825063 -0.223696 1.813101
  H 1.827259 0.325461 3.227568
  H 1.825689 1.962329 2.570574
  H 2.183534 -0.644941 -1.551634
  H 4.934956 -0.105127 -0.212877
  H 7.646728 -0.529252 -1.259631
 20
 134.013870
  C 0.807526 0.180812 0.506704
  C 2.280006 0.142420 0.405950
  C 3.151710 0.589622 1.514472
  C 2.475725 1.095141 2.775493
  H 3.228105 1.388200 3.502749
  C 2.788089 -0.327521 -0.764656
  C 4.219885 -0.433603 -1.032872
  C 4.667529 -0.876607 -2.140668
  H 4.626433 -1.272433 -3.129814
  O 7.560433 -0.853121 -2.067389
  H 0.464465 0.563518 1.459377
  H 0.391856 -0.815321 0.345688
  H 0.389468 0.787095 -0.298688
  H 3.821387 1.374397 1.137123
  H 3.824038 -0.236183 1.784344
  H 1.854153 0.326486 3.230607
  H 1.851928 1.963682 2.573231
  H 2.122100 -0.643579 -1.549271
  H 4.882483 -0.112294 -0.230956
  H 7.734659 -0.505277 -1.191724
 20
 135.169173
  C 0.787791 0.189892 0.531238
  C 2.257011 0.141385 0.403648
  C 3.145107 0.583313 1.497999
  C 2.487614 1.091635 2.766126
  H 3.250019 1.381387 3.484051
  C 2.742318 -0.334564 -0.782733
  C 4.174954 -0.448223 -1.070938
  C 4.626549 -0.886884 -2.170346
  H 4.657812 -1.281200 -3.158144
  O 7.674806 -0.829211 -2.004416
  H 0.469064 0.575543 1.491567
  H 0.362551 -0.802654 0.381221
  H 0.359429 0.800836 -0.263570
  H 3.810506 1.366844 1.112833
  H 3.813801 -0.246503 1.761290
  H 1.868615 0.325471 3.228747
  H 1.865798 1.963084 2.570905
  H 2.066326 -0.648142 -1.561317
  H 4.834631 -0.125591 -0.264422
  H 7.826015 -0.479361 -1.118275
 20
 135.381845
  C 0.760457 0.194222 0.541934
  C 2.233451 0.135397 0.389476
  C 3.148219 0.572908 1.472984
  C 2.517285 1.087652 2.756027
  H 3.295363 1.371703 3.459821
  C 2.688976 -0.339075 -0.793021
  C 4.116836 -0.459480 -1.098308
  C 4.578299 -0.894464 -2.190443
  H 4.686153 -1.287183 -3.176115
  O 7.777101 -0.791302 -1.910600
  H 0.463212 0.582338 1.507898
  H 0.325133 -0.796087 0.401584
  H 0.322403 0.810287 -0.244505
  H 3.810721 1.354299 1.076198
  H 3.813644 -0.263645 1.726714
  H 1.901749 0.326059 3.230743
  H 1.899365 1.964401 2.572259
  H 2.005444 -0.649035 -1.563244
  H 4.771418 -0.134923 -0.286223
  H 7.898183 -0.444500 -1.028992
 20
 135.179112
  C 0.742803 0.203543 0.566468
  C 2.208564 0.135112 0.389296
  C 3.136572 0.566301 1.456156
  C 2.525103 1.083208 2.744320
  H 3.313019 1.363590 3.437997
  C 2.648222 -0.347055 -0.812791
  C 4.074323 -0.475463 -1.138444
  C 4.544707 -0.906433 -2.223479
  H 4.708929 -1.294174 -3.199584
  O 7.892620 -0.766140 -1.845915
  H 0.466976 0.594032 1.538219
  H 0.299751 -0.783186 0.436208
  H 0.296669 0.823691 -0.210211
  H 3.794352 1.346146 1.051470
  H 3.797721 -0.274165 1.703216
  H 1.912610 0.324178 3.226471
  H 1.909785 1.962889 2.567456
  H 1.954714 -0.654785 -1.578160
  H 4.727756 -0.150420 -0.322773
  H 7.997641 -0.416114 -0.951212
 20
 130.557801
  C 0.717099 0.217784 0.649744
  C 2.154867 0.106706 0.332255
  C 3.206908 0.515645 1.300740
  C 2.748345 1.056753 2.645949
  H 3.614636 1.314919 3.250105
  C 2.497794 -0.387693 -0.890087
  C 3.851337 -0.551459 -1.342244
  C 4.506431 -0.955772 -2.335439
  H 5.093214 -1.185435 -3.201024
  O 7.550661 -0.543105 -1.248800
  H 0.538192 0.618930 1.639536
  H 0.240035 -0.759552 0.570997
  H 0.218753 0.850570 -0.085261
  H 3.829363 1.284938 0.824792
  H 3.852464 -0.352056 1.491397
  H 2.170702 0.316899 3.195773
  H 2.147400 1.955893 2.528656
  H 1.746068 -0.690684 -1.603144
  H 4.561193 -0.231098 -0.543026
  H 7.707374 -0.247430 -0.346213
