 29
 0.000000
  C 0.907794 0.048509 0.272038
  C 2.400436 0.057218 0.086396
  C 3.240912 -0.013524 1.354424
  C 2.523692 -0.087638 2.699641
  H 3.235316 -0.132994 3.511756
  C 2.994107 0.126479 -1.122481
  C 2.352309 0.204659 -2.495200
  C 0.841125 0.216699 -2.715250
  C 0.521040 0.301777 -4.205140
  C 4.453433 0.131814 -1.210686
  C 5.193085 0.195338 -2.319570
  O 6.552985 0.196601 -2.335658
  H 0.607928 -0.014165 1.312702
  H 0.462346 -0.814868 -0.215712
  H 0.463194 0.965272 -0.108139
  H 3.887654 0.869824 1.384555
  H 3.886673 -0.895541 1.286741
  H 1.892383 -0.975465 2.745474
  H 1.893332 0.790381 2.843227
  H 2.741664 -0.643369 -3.069584
  H 2.741061 1.112869 -2.969205
  H 0.387638 1.076923 -2.224530
  H 0.388271 -0.694206 -2.325856
  H 0.931208 1.211047 -4.640535
  H -0.556577 0.310004 -4.355935
  H 0.931851 -0.551633 -4.741340
  H 4.999684 0.078687 -0.279455
  H 4.815473 0.252840 -3.327083
  H 6.883445 0.144880 -1.429220
 29
 5.614374
  C 0.909531 0.014457 0.266378
  C 2.369938 0.048728 0.094260
  C 3.229544 -0.037867 1.355587
  C 2.495963 -0.078944 2.697842
  H 3.233172 -0.137649 3.495570
  C 2.982218 0.122286 -1.114447
  C 2.337632 0.203468 -2.480605
  C 0.830940 0.199316 -2.695191
  C 0.529102 0.292854 -4.187992
  C 4.443503 0.144135 -1.214807
  C 5.176516 0.218023 -2.329047
  O 6.540144 0.223362 -2.348064
  H 0.580772 -0.000828 1.279374
  H 0.417110 -0.767572 -0.265494
  H 0.752050 0.980189 -0.185330
  H 3.903947 0.824082 1.381403
  H 3.849250 -0.939653 1.294532
  H 1.850791 -0.951826 2.777576
  H 1.902123 0.819359 2.858640
  H 2.739456 -0.634111 -3.056128
  H 2.722170 1.116150 -2.943735
  H 0.362014 1.047334 -2.196871
  H 0.389572 -0.720364 -2.311785
  H 0.939055 1.210292 -4.606104
  H -0.544725 0.288995 -4.359844
  H 0.963971 -0.550260 -4.721319
  H 5.001113 0.088416 -0.298614
  H 4.790639 0.278511 -3.337608
  H 6.878932 0.167549 -1.441199
 29
 17.547592
  C 0.900795 0.026461 0.301895
  C 2.348218 0.043127 0.113115
  C 3.232929 -0.061299 1.356800
  C 2.521769 -0.076653 2.705586
  H 3.265845 -0.152541 3.495088
  C 2.961576 0.118217 -1.112848
  C 2.326459 0.206530 -2.481853
  C 0.817325 0.166862 -2.724550
  C 0.539301 0.283440 -4.220332
  C 4.413548 0.146490 -1.203824
  C 5.150557 0.236913 -2.314778
  O 6.512888 0.247455 -2.328686
  H 0.552335 0.067994 1.323984
  H 0.352599 -0.708271 -0.260821
  H 0.988190 0.983449 -0.169042
  H 3.932177 0.778617 1.369532
  H 3.819280 -0.983046 1.284631
  H 1.854982 -0.932564 2.795604
  H 1.957253 0.840099 2.869146
  H 2.755476 -0.613944 -3.064752
  H 2.697777 1.135301 -2.927952
  H 0.311334 0.988681 -2.217595
  H 0.396565 -0.775635 -2.371705
  H 0.929324 1.221323 -4.611701
  H -0.531039 0.251533 -4.411450
  H 1.009071 -0.534416 -4.763628
  H 4.967304 0.075852 -0.282022
  H 4.770329 0.312827 -3.321967
  H 6.845977 0.178361 -1.422876
 29
 31.789740
  C 0.895008 0.004981 0.287052
  C 2.350685 0.037647 0.103012
  C 3.223482 -0.057781 1.352974
  C 2.498831 -0.057542 2.693915
  H 3.234378 -0.130564 3.488054
  C 2.985376 0.111593 -1.124894
  C 2.330889 0.207690 -2.501687
  C 0.819750 0.147839 -2.710367
  C 0.503500 0.285796 -4.198705
  C 4.435648 0.139312 -1.205290
  C 5.180560 0.246237 -2.309566
  O 6.545764 0.251240 -2.311143
  H 0.523522 0.048911 1.312249
  H 0.329175 -0.668574 -0.318376
  H 1.178538 0.952328 -0.151875
  H 3.929294 0.771750 1.365566
  H 3.801197 -0.980619 1.291150
  H 1.828191 -0.906935 2.785275
  H 1.939024 0.861981 2.845008
  H 2.759805 -0.597258 -3.102798
  H 2.679962 1.145870 -2.943268
  H 0.312762 0.950954 -2.174885
  H 0.425286 -0.808867 -2.364493
  H 0.868068 1.237302 -4.582299
  H -0.570393 0.238467 -4.365683
  H 0.974505 -0.514142 -4.767447
  H 4.983472 0.053580 -0.282592
  H 4.807499 0.340947 -3.321092
  H 6.872165 0.162487 -1.397554
 29
 43.920331
  C 0.880491 -0.028874 0.310392
  C 2.336802 0.031457 0.096175
  C 3.218260 -0.044366 1.345646
  C 2.506084 -0.033219 2.694306
  H 3.249390 -0.092495 3.482829
  C 2.973173 0.101187 -1.127552
  C 2.333811 0.203831 -2.501207
  C 0.817325 0.134712 -2.723470
  C 0.507447 0.297898 -4.211083
  C 4.422482 0.131019 -1.201346
  C 5.169605 0.251616 -2.303505
  O 6.537475 0.245880 -2.305184
  H 0.530071 -0.008229 1.323612
  H 0.285010 -0.646262 -0.333000
  H 1.302924 0.917488 -0.084858
  H 3.926022 0.791453 1.344007
  H 3.799378 -0.970368 1.284924
  H 1.841268 -0.887227 2.801538
  H 1.940943 0.886693 2.840110
  H 2.778543 -0.596045 -3.112095
  H 2.682271 1.156529 -2.931774
  H 0.299802 0.924577 -2.175562
  H 0.430405 -0.832535 -2.399641
  H 0.865340 1.259718 -4.574503
  H -0.566148 0.243861 -4.385379
  H 0.988908 -0.486405 -4.791805
  H 4.969567 0.028978 -0.276489
  H 4.799739 0.361344 -3.307328
  H 6.858781 0.139419 -1.399611
 29
 51.724988
  C 0.874461 -0.066672 0.332242
  C 2.336380 0.028723 0.099352
  C 3.206576 -0.024568 1.347164
  C 2.489041 -0.011433 2.688439
  H 3.236383 -0.046802 3.487193
  C 2.980279 0.090782 -1.136365
  C 2.341735 0.194741 -2.508829
  C 0.830088 0.126819 -2.725436
  C 0.513134 0.307361 -4.207365
  C 4.426803 0.115471 -1.211985
  C 5.170597 0.253860 -2.317899
  O 6.533175 0.246688 -2.324680
  H 0.533953 -0.100170 1.341037
  H 0.246992 -0.583686 -0.371006
  H 1.402939 0.890487 0.021818
  H 3.901598 0.820309 1.340965
  H 3.796969 -0.943187 1.295668
  H 1.843567 -0.873435 2.803634
  H 1.905998 0.894356 2.820045
  H 2.786834 -0.601976 -3.125035
  H 2.686300 1.150941 -2.937296
  H 0.317555 0.908929 -2.165912
  H 0.447912 -0.842102 -2.412857
  H 0.868141 1.272740 -4.560371
  H -0.560936 0.254097 -4.377256
  H 0.992508 -0.468659 -4.798720
  H 4.980582 -0.008175 -0.290630
  H 4.796778 0.389650 -3.315770
  H 6.854021 0.119291 -1.424985
 29
 57.696642
  C 0.865994 -0.121936 0.349775
  C 2.325520 0.020572 0.098981
  C 3.210945 -0.006677 1.348909
  C 2.510582 0.017176 2.696823
  H 3.257453 0.016476 3.474208
  C 2.973544 0.075975 -1.147152
  C 2.336133 0.187474 -2.525762
  C 0.823954 0.124452 -2.747755
  C 0.511481 0.325994 -4.223934
  C 4.417109 0.101247 -1.210499
  C 5.172851 0.255842 -2.305584
  O 6.543486 0.240425 -2.296774
  H 0.532693 -0.201194 1.361428
  H 0.217502 -0.550408 -0.387618
  H 1.471006 0.863258 0.096304
  H 3.889586 0.843439 1.321418
  H 3.812440 -0.914109 1.305303
  H 1.886077 -0.861716 2.840256
  H 1.905080 0.914524 2.818395
  H 2.782146 -0.603103 -3.145447
  H 2.681071 1.142889 -2.948763
  H 0.313570 0.899645 -2.180859
  H 0.438936 -0.851727 -2.450345
  H 0.868799 1.295892 -4.562080
  H -0.562086 0.276435 -4.397097
  H 0.991810 -0.442576 -4.824599
  H 4.962677 -0.041079 -0.287361
  H 4.809566 0.413255 -3.307645
  H 6.850570 0.093734 -1.401976
 29
 62.325810
  C 0.872692 -0.186920 0.322489
  C 2.328745 0.021131 0.091938
  C 3.202759 0.010626 1.348628
  C 2.488705 0.045035 2.693646
  H 3.238210 0.076067 3.487033
  C 2.990678 0.068276 -1.156415
  C 2.347085 0.182694 -2.530953
  C 0.839682 0.129437 -2.727761
  C 0.503609 0.342633 -4.193690
  C 4.427169 0.093321 -1.220105
  C 5.181583 0.254797 -2.316444
  O 6.554952 0.231826 -2.311597
  H 0.518854 -0.292869 1.323839
  H 0.229844 -0.545364 -0.448030
  H 1.529568 0.843810 0.117765
  H 3.873323 0.868553 1.314816
  H 3.814538 -0.892249 1.321600
  H 1.881115 -0.847488 2.850067
  H 1.860466 0.933995 2.792886
  H 2.780523 -0.607536 -3.153828
  H 2.690196 1.133218 -2.956101
  H 0.346894 0.901598 -2.148905
  H 0.455523 -0.842625 -2.430862
  H 0.860710 1.313439 -4.531217
  H -0.574169 0.299794 -4.348536
  H 0.969803 -0.424836 -4.807584
  H 4.971723 -0.060367 -0.306337
  H 4.816592 0.423121 -3.313816
  H 6.866265 0.072637 -1.409875
 29
 66.395687
  C 0.884778 -0.238622 0.309478
  C 2.331316 0.027026 0.088361
  C 3.209853 0.020690 1.350594
  C 2.487383 0.064239 2.703923
  H 3.229423 0.110013 3.495898
  C 2.989727 0.067271 -1.152893
  C 2.348177 0.181768 -2.524465
  C 0.834522 0.137243 -2.723535
  C 0.497995 0.357603 -4.201679
  C 4.427043 0.091726 -1.215269
  C 5.185334 0.254741 -2.309970
  O 6.555786 0.225835 -2.299767
  H 0.524889 -0.347272 1.301971
  H 0.243322 -0.561865 -0.476253
  H 1.584399 0.840289 0.125286
  H 3.873608 0.871494 1.312011
  H 3.824768 -0.880977 1.330838
  H 1.897771 -0.815705 2.867028
  H 1.854832 0.941049 2.792382
  H 2.781340 -0.619992 -3.150764
  H 2.697589 1.135913 -2.954216
  H 0.345641 0.913569 -2.141605
  H 0.436584 -0.850597 -2.421504
  H 0.864969 1.336024 -4.540078
  H -0.594231 0.321025 -4.359684
  H 0.964714 -0.418699 -4.822029
  H 4.964915 -0.067523 -0.313849
  H 4.818981 0.430877 -3.320125
  H 6.863167 0.061355 -1.395100
 29
 68.692130
  C 0.891327 -0.308876 0.324618
  C 2.326632 0.022624 0.097195
  C 3.208530 0.029308 1.352141
  C 2.488713 0.089250 2.689776
  H 3.231901 0.158379 3.487109
  C 2.998514 0.054609 -1.163408
  C 2.354172 0.176105 -2.534877
  C 0.833917 0.139088 -2.729968
  C 0.489945 0.378194 -4.203283
  C 4.429448 0.085708 -1.217767
  C 5.193613 0.251020 -2.310574
  O 6.563960 0.221781 -2.294740
  H 0.519140 -0.385783 1.322628
  H 0.244447 -0.599698 -0.467250
  H 1.611135 0.836689 0.135266
  H 3.879243 0.894218 1.300379
  H 3.824493 -0.872864 1.343242
  H 1.894460 -0.812879 2.869056
  H 1.842106 0.967753 2.757794
  H 2.779850 -0.613951 -3.158789
  H 2.705055 1.124968 -2.959627
  H 0.346820 0.914097 -2.131805
  H 0.441279 -0.833827 -2.445290
  H 0.853700 1.353071 -4.530234
  H -0.585124 0.346484 -4.353925
  H 0.947762 -0.385963 -4.832568
  H 4.974877 -0.073270 -0.294004
  H 4.837839 0.423068 -3.305671
  H 6.864560 0.058514 -1.396502
 29
 70.105461
  C 0.904733 -0.396702 0.317723
  C 2.316106 0.021052 0.094596
  C 3.208548 0.047256 1.345954
  C 2.494592 0.121971 2.694737
  H 3.235767 0.218470 3.481614
  C 2.991091 0.048093 -1.172207
  C 2.347806 0.178012 -2.535269
  C 0.839885 0.143643 -2.729685
  C 0.499686 0.409521 -4.191768
  C 4.421734 0.090756 -1.218790
  C 5.193750 0.245348 -2.307783
  O 6.562669 0.196573 -2.283368
  H 0.517146 -0.441945 1.311725
  H 0.261058 -0.668416 -0.484000
  H 1.627098 0.837670 0.121529
  H 3.868510 0.913695 1.276234
  H 3.829365 -0.847181 1.344002
  H 1.923053 -0.775431 2.893310
  H 1.838352 0.984448 2.749409
  H 2.775372 -0.610401 -3.168128
  H 2.697825 1.132595 -2.953794
  H 0.351975 0.907656 -2.117561
  H 0.445315 -0.838643 -2.462568
  H 0.861833 1.386871 -4.498287
  H -0.577783 0.379550 -4.344658
  H 0.957472 -0.339120 -4.831527
  H 4.959839 -0.071414 -0.297470
  H 4.843969 0.396881 -3.311531
  H 6.857586 0.040982 -1.375630
 29
 70.002243
  C 0.930983 -0.492016 0.311950
  C 2.314948 0.009618 0.093961
  C 3.206984 0.061060 1.346800
  C 2.486974 0.163398 2.687977
  H 3.223101 0.286864 3.476139
  C 3.000375 0.020330 -1.180915
  C 2.352933 0.161953 -2.539698
  C 0.840315 0.158322 -2.721841
  C 0.491722 0.447628 -4.178006
  C 4.425409 0.054725 -1.223397
  C 5.203484 0.226857 -2.308307
  O 6.570727 0.222630 -2.270264
  H 0.518711 -0.487214 1.297427
  H 0.293455 -0.757975 -0.497785
  H 1.652389 0.840562 0.094181
  H 3.866940 0.928574 1.259746
  H 3.831317 -0.835625 1.365703
  H 1.921327 -0.734198 2.906039
  H 1.821478 1.022303 2.716311
  H 2.760513 -0.633086 -3.176309
  H 2.718064 1.111006 -2.959607
  H 0.373516 0.921798 -2.096390
  H 0.429953 -0.818136 -2.463195
  H 0.868383 1.422022 -4.476662
  H -0.586060 0.438651 -4.321331
  H 0.930164 -0.301637 -4.830283
  H 4.959424 -0.093569 -0.298419
  H 4.856396 0.406728 -3.311427
  H 6.861962 0.063734 -1.361827
 29
 67.713036
  C 1.011191 -0.676453 0.307852
  C 2.317058 -0.003899 0.094019
  C 3.196328 0.117489 1.353287
  C 2.447341 0.237276 2.677123
  H 3.162964 0.426574 3.475216
  C 3.024015 0.005973 -1.188885
  C 2.364008 0.163632 -2.546770
  C 0.844919 0.184260 -2.704029
  C 0.472410 0.523900 -4.147074
  C 4.441845 0.045477 -1.225947
  C 5.222020 0.204062 -2.317234
  O 6.587499 0.161487 -2.286324
  H 0.539616 -0.603617 1.263548
  H 0.400942 -0.980416 -0.511001
  H 1.643205 0.829014 0.048724
  H 3.824715 1.006940 1.244958
  H 3.852615 -0.756572 1.411022
  H 1.916195 -0.681571 2.920107
  H 1.738727 1.066518 2.658041
  H 2.753172 -0.627526 -3.194784
  H 2.735300 1.110984 -2.963017
  H 0.399170 0.931672 -2.045230
  H 0.424731 -0.794548 -2.467802
  H 0.854799 1.504513 -4.422965
  H -0.607155 0.530866 -4.270705
  H 0.890954 -0.210349 -4.831482
  H 4.977204 -0.115119 -0.300241
  H 4.871661 0.368427 -3.321989
  H 6.880073 0.002641 -1.379938
 29
 66.250879
  C 1.072840 -0.812156 0.299719
  C 2.313721 -0.021120 0.082789
  C 3.184464 0.162995 1.339545
  C 2.422868 0.308259 2.652696
  H 3.123854 0.549191 3.448737
  C 3.029321 -0.012646 -1.196833
  C 2.366669 0.161230 -2.544650
  C 0.846936 0.206326 -2.684177
  C 0.462094 0.595295 -4.108693
  C 4.442271 0.037695 -1.225917
  C 5.229858 0.189709 -2.314841
  O 6.592310 0.133012 -2.278306
  H 0.551439 -0.690517 1.228407
  H 0.499473 -1.162597 -0.528323
  H 1.643394 0.804553 0.005527
  H 3.789384 1.061710 1.202880
  H 3.860231 -0.690004 1.429186
  H 1.919579 -0.613737 2.923520
  H 1.689941 1.112246 2.596189
  H 2.741580 -0.627265 -3.205927
  H 2.745317 1.108221 -2.952900
  H 0.418328 0.936468 -1.994721
  H 0.413554 -0.776201 -2.472839
  H 0.852146 1.578753 -4.358356
  H -0.619491 0.618461 -4.218541
  H 0.862778 -0.120743 -4.819462
  H 4.970965 -0.121121 -0.295828
  H 4.882992 0.338282 -3.321459
  H 6.881239 -0.019648 -1.368737
