 11
 0.000000
  H 1.355489 0.130350 0.374743
  C 2.431133 0.114964 0.337887
  H 2.982010 0.459598 1.197942
  C 3.070501 -0.334575 -0.781906
  C 4.469090 -0.375305 -0.882737
  C 5.134608 -0.830798 -2.017438
  H 4.608801 -1.185695 -2.900859
  O 6.407121 -0.883494 -2.149585
  H 2.482381 -0.672534 -1.624900
  H 5.052749 -0.034966 -0.035093
  H 6.935933 -0.573601 -1.379611
 11
 13.618551
  H 1.292226 0.145210 0.411124
  C 2.367355 0.121299 0.353622
  H 2.934302 0.462341 1.205606
  C 2.978088 -0.328990 -0.768295
  C 4.518567 -0.378304 -0.889828
  C 5.145317 -0.832451 -2.020991
  H 4.609885 -1.183164 -2.893533
  O 6.531767 -0.897469 -2.184321
  H 2.389184 -0.665100 -1.607357
  H 5.105699 -0.040005 -0.047111
  H 7.058212 -0.589411 -1.420683
 11
 40.688229
  H 1.265783 0.169912 0.463736
  C 2.333816 0.126069 0.364165
  H 2.915727 0.458115 1.199587
  C 2.887173 -0.328570 -0.767772
  C 4.591856 -0.374080 -0.870108
  C 5.129422 -0.836214 -2.022865
  H 4.619369 -1.189259 -2.899218
  O 6.608981 -0.912130 -2.227722
  H 2.375343 -0.677558 -1.646251
  H 5.114086 -0.027419 -0.004812
  H 7.080714 -0.593447 -1.447182
 11
 73.189573
  H 1.214195 0.178770 0.516783
  C 2.277256 0.136577 0.380693
  H 2.874199 0.471573 1.200506
  C 2.777196 -0.315782 -0.753312
  C 4.677966 -0.384021 -0.872596
  C 5.139418 -0.844958 -2.027911
  H 4.655313 -1.198979 -2.909310
  O 6.677275 -0.921650 -2.269352
  H 2.310834 -0.670275 -1.652655
  H 5.171781 -0.040561 -0.000033
  H 7.132901 -0.591812 -1.463698
 11
 87.765902
  H 1.124473 0.205834 0.573581
  C 2.186214 0.120862 0.364378
  H 2.768694 0.480160 1.208309
  C 2.581317 -0.316494 -0.750883
  C 4.900038 -0.367474 -0.824537
  C 5.271136 -0.818271 -1.976076
  H 4.625499 -1.144169 -2.779210
  O 6.609054 -0.962554 -2.377658
  H 2.417873 -0.695423 -1.727237
  H 5.181914 0.005332 0.137109
  H 7.223950 -0.684013 -1.685790
 11
 96.865901
  H 1.011659 0.210133 0.661536
  C 2.072115 0.138266 0.383932
  H 2.690018 0.488939 1.205580
  C 2.419638 -0.307106 -0.738019
  C 5.032403 -0.349110 -0.814239
  C 5.386574 -0.804727 -1.974095
  H 4.683886 -1.105159 -2.731041
  O 6.657559 -1.003919 -2.447768
  H 2.357860 -0.702180 -1.724624
  H 5.236201 0.021651 0.155276
  H 7.326783 -0.753174 -1.791030
 11
 102.304161
  H 0.920650 0.255489 0.737012
  C 1.964429 0.137659 0.415001
  H 2.611664 0.514210 1.193351
  C 2.268448 -0.313808 -0.710090
  C 5.144965 -0.362178 -0.814363
  C 5.476102 -0.812375 -1.976381
  H 4.731290 -1.073305 -2.724824
  O 6.722288 -1.011691 -2.500929
  H 2.306618 -0.708905 -1.694235
  H 5.281731 0.007295 0.161605
  H 7.423160 -0.788530 -1.866359
 11
 105.731780
  H 0.793431 0.240496 0.816673
  C 1.824589 0.118347 0.472711
  H 2.482391 0.498449 1.256471
  C 2.128323 -0.291291 -0.667166
  C 5.269391 -0.317187 -0.858708
  C 5.580363 -0.773948 -2.025891
  H 4.814828 -1.061250 -2.748155
  O 6.808268 -1.028817 -2.555016
  H 2.225088 -0.744858 -1.621372
  H 5.371976 0.055411 0.123011
  H 7.521136 -0.832874 -1.932243
 11
 107.470143
  H 0.648624 0.266801 0.862473
  C 1.678422 0.154118 0.513856
  H 2.325439 0.488751 1.321934
  C 2.004827 -0.265888 -0.616001
  C 5.414996 -0.321560 -0.875749
  C 5.684726 -0.788477 -2.045434
  H 4.883503 -1.047060 -2.739295
  O 6.872805 -1.070040 -2.623958
  H 2.187327 -0.743431 -1.542797
  H 5.447868 0.062101 0.106882
  H 7.622147 -0.865924 -2.042362
 11
 108.052977
  H 0.489441 0.333482 0.869661
  C 1.529672 0.169271 0.574195
  H 2.155085 0.517540 1.397064
  C 1.893544 -0.283339 -0.531573
  C 5.561595 -0.330980 -0.894177
  C 5.789955 -0.816349 -2.063845
  H 4.960314 -1.060252 -2.732354
  O 6.952235 -1.090318 -2.693256
  H 2.085040 -0.717897 -1.476981
  H 5.558682 0.065579 0.081061
  H 7.723280 -0.906172 -2.134463
 11
 108.286200
  H 0.365121 0.362728 0.936730
  C 1.399120 0.203007 0.624120
  H 2.049466 0.544160 1.427988
  C 1.742722 -0.275729 -0.474324
  C 5.668616 -0.353621 -0.910454
  C 5.881937 -0.832157 -2.085989
  H 5.027906 -1.082445 -2.738222
  O 7.027910 -1.107525 -2.735352
  H 1.945671 -0.680001 -1.428168
  H 5.665884 0.037349 0.064479
  H 7.813785 -0.903116 -2.202945
 11
 108.131942
  H 0.234325 0.395015 1.008805
  C 1.263778 0.236504 0.680002
  H 1.934968 0.549521 1.484500
  C 1.592804 -0.237495 -0.426117
  C 5.766557 -0.363440 -0.938951
  C 5.966634 -0.846863 -2.114410
  H 5.108059 -1.091911 -2.748875
  O 7.105176 -1.131596 -2.781167
  H 1.821951 -0.656115 -1.371772
  H 5.758093 0.031928 0.035249
  H 7.899287 -0.928313 -2.256909
 11
 108.056786
  H 0.201603 0.396723 1.001093
  C 1.236963 0.240659 0.690239
  H 1.891503 0.556649 1.502042
  C 1.588348 -0.223898 -0.416127
  C 5.803713 -0.344073 -0.949496
  C 5.991318 -0.871156 -2.108851
  H 5.121752 -1.148296 -2.715005
  O 7.111912 -1.125207 -2.805136
  H 1.841376 -0.621200 -1.363544
  H 5.749234 -0.012423 0.047708
  H 7.913909 -0.890543 -2.312569
