14

C 0.994437 0.133298 0.382879
C 2.472702 0.140207 0.399509
H 3.0259458061218765 0.4816521717313369 1.2493539774453795
C 3.095926 -0.322279 -0.752303
C 4.473044 -0.413035 -0.978896
C 5.130778 -0.867753 -2.111886
H 4.762934398211829 -1.241945084084266 -3.044394106577192
O 6.456599 -0.869907 -2.117309
H 0.545957 0.501101 1.298818
H 0.630125 -0.880999 0.213753
H 0.629755 0.748707 -0.440773
H 2.436529 -0.639703 -1.542429
H 5.101076 -0.083766 -0.158858
H 6.839914 -0.536228 -1.284745
