 23
 0.000000
  C 1.004253 0.112616 0.329627
  C 2.479470 0.126060 0.366091
  C 3.229924 0.603042 1.553875
  C 2.411600 1.082293 2.745498
  H 3.083078 1.399862 3.537359
  C 3.143030 -0.329781 -0.767310
  C 4.525446 -0.394086 -0.928378
  C 5.181832 -0.850013 -2.067036
  C 4.529672 -1.345031 -3.298248
  H 3.447928 -1.326830 -3.249540
  O 6.493007 -0.870812 -2.124680
  H 0.550174 0.479474 1.241364
  H 0.647813 -0.901228 0.138801
  H 0.649290 0.713174 -0.509826
  H 3.890700 1.417281 1.235826
  H 3.889815 -0.205432 1.887945
  H 1.783406 0.289187 3.141886
  H 1.784652 1.930068 2.482830
  H 2.519243 -0.658206 -1.585372
  H 5.149423 -0.064909 -0.108581
  H 4.872209 -2.361720 -3.496250
  H 4.870338 -0.746838 -4.144661
  H 6.946358 -0.547916 -1.324396
 23
 7.740507
  C 0.882801 0.113448 0.331355
  C 2.517322 0.128040 0.371140
  C 3.259296 0.603788 1.555896
  C 2.434881 1.081387 2.743425
  H 3.102364 1.400606 3.539452
  C 3.169894 -0.326891 -0.760012
  C 4.552358 -0.393907 -0.927914
  C 5.202937 -0.851844 -2.071660
  C 4.544068 -1.345244 -3.298576
  H 3.463833 -1.324912 -3.244314
  O 6.511444 -0.875111 -2.135734
  H 0.435280 0.480459 1.243510
  H 0.531973 -0.899110 0.142326
  H 0.533513 0.714377 -0.505901
  H 3.919748 1.418944 1.240052
  H 3.918860 -0.203836 1.892174
  H 1.806113 0.286806 3.136329
  H 1.807377 1.927838 2.477249
  H 2.540768 -0.654051 -1.574941
  H 5.181242 -0.065921 -0.111156
  H 4.883305 -2.362046 -3.498148
  H 4.881275 -0.748068 -4.146229
  H 6.970054 -0.552857 -1.337274
 23
 23.774124
  C 0.787633 0.114044 0.332108
  C 2.581160 0.133594 0.385004
  C 3.285423 0.609645 1.570679
  C 2.428599 1.078963 2.737862
  H 3.072459 1.405391 3.552047
  C 3.205826 -0.320537 -0.744158
  C 4.588197 -0.394680 -0.929878
  C 5.221197 -0.857043 -2.084741
  C 4.542204 -1.346161 -3.300292
  H 3.463730 -1.319622 -3.229985
  O 6.525078 -0.886987 -2.166090
  H 0.358453 0.481993 1.246705
  H 0.462862 -0.899370 0.147357
  H 0.464555 0.718644 -0.502609
  H 3.945129 1.431166 1.267927
  H 3.944244 -0.193562 1.920699
  H 1.797813 0.277734 3.112756
  H 1.799066 1.917798 2.454287
  H 2.563047 -0.644474 -1.551091
  H 5.230050 -0.070017 -0.121500
  H 4.872391 -2.364522 -3.504675
  H 4.869995 -0.751246 -4.152616
  H 6.998107 -0.566923 -1.373787
 23
 41.341093
  C 0.679349 0.113732 0.330522
  C 2.631665 0.139841 0.400860
  C 3.308995 0.622653 1.603447
  C 2.424074 1.085249 2.753891
  H 3.045712 1.417219 3.581980
  C 3.241769 -0.321339 -0.745743
  C 4.623869 -0.401018 -0.945334
  C 5.242294 -0.865327 -2.105420
  C 4.546257 -1.351746 -3.313672
  H 3.468100 -1.320431 -3.230624
  O 6.548647 -0.900207 -2.200064
  H 0.266047 0.484830 1.252880
  H 0.381618 -0.909770 0.148222
  H 0.383603 0.727355 -0.509403
  H 3.968711 1.450591 1.313315
  H 3.967779 -0.176491 1.967001
  H 1.791894 0.278093 3.112999
  H 1.793172 1.917520 2.454869
  H 2.589630 -0.642487 -1.545881
  H 5.274705 -0.078877 -0.143171
  H 4.869528 -2.371972 -3.522143
  H 4.866633 -0.758150 -4.170321
  H 7.032250 -0.582285 -1.414082
 23
 58.757607
  C 0.575383 0.112526 0.326178
  C 2.686778 0.141652 0.405883
  C 3.339321 0.622741 1.604510
  C 2.435088 1.079440 2.739997
  H 3.040438 1.415499 3.578582
  C 3.265813 -0.314530 -0.728250
  C 4.643134 -0.398352 -0.938525
  C 5.250896 -0.864889 -2.104562
  C 4.544038 -1.348947 -3.305641
  H 3.467395 -1.314556 -3.213429
  O 6.551757 -0.903169 -2.209345
  H 0.185726 0.485921 1.254172
  H 0.304461 -0.914195 0.148370
  H 0.306923 0.731725 -0.512715
  H 3.998037 1.453885 1.322155
  H 3.996888 -0.173528 1.975903
  H 1.801885 0.267572 3.086592
  H 1.803429 1.906653 2.428660
  H 2.604039 -0.632336 -1.520226
  H 5.300535 -0.077745 -0.140407
  H 4.862476 -2.369820 -3.516778
  H 4.858648 -0.756585 -4.164828
  H 7.043090 -0.586304 -1.427763
 23
 72.719118
  C 0.483515 0.112328 0.319390
  C 2.752310 0.155197 0.440778
  C 3.347953 0.644292 1.662271
  C 2.397357 1.087413 2.763101
  H 2.959753 1.431368 3.623626
  C 3.281270 -0.309594 -0.715336
  C 4.673299 -0.404339 -0.955591
  C 5.267215 -0.880103 -2.144406
  C 4.537202 -1.362351 -3.332770
  H 3.463618 -1.322955 -3.221855
  O 6.565863 -0.925048 -2.272399
  H 0.161064 0.491267 1.261623
  H 0.322854 -0.932955 0.146203
  H 0.327480 0.748974 -0.528505
  H 4.005114 1.483616 1.405684
  H 4.002755 -0.141227 2.057543
  H 1.760282 0.262944 3.075795
  H 1.763082 1.901331 2.418846
  H 2.597345 -0.621190 -1.491463
  H 5.341994 -0.084757 -0.162906
  H 4.847049 -2.384509 -3.548953
  H 4.838997 -0.772712 -4.197945
  H 7.074278 -0.608889 -1.500255
 23
 85.773176
  C 0.402774 0.111613 0.299225
  C 2.828789 0.157452 0.460277
  C 3.370183 0.653897 1.705632
  C 2.364108 1.086215 2.762860
  H 2.884050 1.438245 3.645312
  C 3.315325 -0.311092 -0.700414
  C 4.710738 -0.410402 -0.975970
  C 5.266387 -0.882163 -2.159437
  C 4.514297 -1.363805 -3.327471
  H 3.444503 -1.321978 -3.191761
  O 6.546584 -0.932045 -2.316890
  H 0.141488 0.495496 1.251024
  H 0.337098 -0.942241 0.138120
  H 0.348849 0.762510 -0.546062
  H 4.021026 1.503953 1.474801
  H 4.012064 -0.124504 2.131505
  H 1.728379 0.251267 3.049234
  H 1.738400 1.893246 2.388027
  H 2.616304 -0.622576 -1.464450
  H 5.392354 -0.088686 -0.195270
  H 4.816762 -2.386482 -3.546905
  H 4.796979 -0.775551 -4.198795
  H 7.068175 -0.615045 -1.555394
 23
 94.497647
  C 0.383018 0.123812 0.267670
  C 2.963225 0.146273 0.504312
  C 3.387274 0.651088 1.781019
  C 2.295852 1.086068 2.759294
  H 2.748913 1.452356 3.673752
  C 3.385125 -0.325401 -0.645243
  C 4.767236 -0.406221 -0.991363
  C 5.255077 -0.875185 -2.186382
  C 4.456428 -1.371691 -3.329951
  H 3.391042 -1.334480 -3.151296
  O 6.553296 -0.933132 -2.413827
  H 0.127121 0.513871 1.219581
  H 0.360977 -0.932824 0.113779
  H 0.397772 0.777478 -0.576737
  H 4.030084 1.518751 1.585900
  H 3.991742 -0.122981 2.270963
  H 1.654341 0.245657 3.008235
  H 1.694609 1.883549 2.331209
  H 2.673257 -0.653125 -1.387354
  H 5.470504 -0.065535 -0.243450
  H 4.754610 -2.394535 -3.551727
  H 4.698622 -0.783961 -4.213069
  H 7.108456 -0.610072 -1.663723
 23
 98.923204
  C 0.355867 0.125582 0.225975
  C 3.085703 0.141242 0.561978
  C 3.400897 0.646815 1.852137
  C 2.233146 1.089438 2.755619
  H 2.627006 1.470955 3.697147
  C 3.458171 -0.331078 -0.590264
  C 4.837198 -0.407452 -1.002080
  C 5.254369 -0.870383 -2.203956
  C 4.396452 -1.371983 -3.318861
  H 3.340671 -1.335526 -3.092687
  O 6.558674 -0.934704 -2.502737
  H 0.075601 0.520801 1.186180
  H 0.370041 -0.936142 0.075831
  H 0.423240 0.784962 -0.616839
  H 4.038496 1.531920 1.685419
  H 3.973843 -0.120874 2.396580
  H 1.587712 0.247940 2.972084
  H 1.659338 1.875520 2.280863
  H 2.733117 -0.663172 -1.311292
  H 5.566407 -0.062410 -0.286434
  H 4.683866 -2.396304 -3.551975
  H 4.595304 -0.780603 -4.211786
  H 7.131954 -0.617461 -1.792025
 23
 101.631550
  C 0.275356 0.118179 0.207410
  C 3.159955 0.151515 0.588283
  C 3.420400 0.659813 1.890296
  C 2.215087 1.086362 2.747135
  H 2.568377 1.471402 3.698122
  C 3.498761 -0.313708 -0.558758
  C 4.876694 -0.410540 -1.004694
  C 5.254035 -0.876448 -2.213990
  C 4.369768 -1.364981 -3.306848
  H 3.318123 -1.317841 -3.056624
  O 6.547356 -0.955271 -2.549295
  H 0.000248 0.506678 1.160435
  H 0.324171 -0.939506 0.061119
  H 0.370433 0.779960 -0.626550
  H 4.045441 1.555089 1.747037
  H 3.977816 -0.099375 2.457425
  H 1.573595 0.232600 2.939679
  H 1.649097 1.866656 2.248356
  H 2.755900 -0.639436 -1.274439
  H 5.626192 -0.077460 -0.301720
  H 4.640903 -2.390975 -3.546754
  H 4.554587 -0.773020 -4.200896
  H 7.145506 -0.640771 -1.843062
 23
 102.918132
  C 0.204176 0.108928 0.186660
  C 3.240865 0.166789 0.628229
  C 3.436680 0.673539 1.932084
  C 2.188847 1.082754 2.734315
  H 2.497185 1.472398 3.698836
  C 3.551972 -0.296963 -0.526911
  C 4.915698 -0.411913 -1.004041
  C 5.251650 -0.880647 -2.220907
  C 4.332840 -1.357815 -3.294962
  H 3.288393 -1.299306 -3.019307
  O 6.538551 -0.974638 -2.594955
  H -0.079383 0.494833 1.141828
  H 0.285664 -0.948467 0.044235
  H 0.324768 0.776125 -0.641138
  H 4.047362 1.578632 1.814922
  H 3.974369 -0.076362 2.522416
  H 1.553298 0.218194 2.899434
  H 1.635108 1.855619 2.210159
  H 2.798741 -0.614722 -1.231561
  H 5.681993 -0.091458 -0.317037
  H 4.585566 -2.387183 -3.542265
  H 4.501763 -0.764631 -4.191823
  H 7.151616 -0.669971 -1.908193
 23
 103.531143
  C 0.120632 0.100072 0.166666
  C 3.310382 0.178019 0.659344
  C 3.454827 0.685820 1.970809
  C 2.165489 1.080443 2.722616
  H 2.430372 1.473707 3.699171
  C 3.595829 -0.282075 -0.496241
  C 4.951253 -0.413169 -1.005977
  C 5.249625 -0.884929 -2.230145
  C 4.300296 -1.350172 -3.280580
  H 3.262536 -1.280819 -2.979364
  O 6.524894 -0.992335 -2.638210
  H -0.168705 0.482919 1.120978
  H 0.226148 -0.954538 0.027869
  H 0.259770 0.770355 -0.654238
  H 4.056351 1.603446 1.877477
  H 3.976305 -0.061395 2.584562
  H 1.535684 0.207789 2.861166
  H 1.624969 1.845989 2.175556
  H 2.827016 -0.594319 -1.190962
  H 5.736794 -0.102982 -0.334686
  H 4.535344 -2.381868 -3.534029
  H 4.453405 -0.756942 -4.179936
  H 7.159656 -0.693659 -1.963346
 23
 103.894340
  C 0.022931 0.095635 0.154795
  C 3.366209 0.189811 0.694426
  C 3.470819 0.694652 2.001977
  C 2.152286 1.075767 2.704920
  H 2.378972 1.470914 3.688983
  C 3.636439 -0.270706 -0.469142
  C 4.978465 -0.411802 -1.003634
  C 5.247438 -0.885955 -2.233646
  C 4.271167 -1.343159 -3.264376
  H 3.240370 -1.265900 -2.941718
  O 6.514589 -1.002931 -2.668820
  H -0.276247 0.476110 1.107479
  H 0.140627 -0.958412 0.017544
  H 0.171033 0.768615 -0.663005
  H 4.062418 1.616434 1.929331
  H 3.974571 -0.046647 2.630536
  H 1.526561 0.195768 2.820119
  H 1.624403 1.836132 2.137250
  H 2.856479 -0.579084 -1.152877
  H 5.778035 -0.109042 -0.347870
  H 4.492142 -2.377082 -3.522801
  H 4.409757 -0.750168 -4.166541
  H 7.161983 -0.711363 -2.010570
 23
 104.023543
  C -0.076611 0.088013 0.137320
  C 3.420395 0.198066 0.721675
  C 3.484525 0.704989 2.037418
  C 2.131141 1.073782 2.691559
  H 2.317269 1.471952 3.684159
  C 3.670100 -0.259130 -0.440260
  C 5.002218 -0.412054 -1.005207
  C 5.239409 -0.888537 -2.241316
  C 4.237497 -1.336354 -3.249900
  H 3.214518 -1.250820 -2.905111
  O 6.493539 -1.015678 -2.704264
  H -0.381633 0.466528 1.089119
  H 0.055342 -0.963976 0.002523
  H 0.082205 0.762879 -0.675952
  H 4.068352 1.636602 1.985665
  H 3.972611 -0.034468 2.686020
  H 1.511307 0.187879 2.782754
  H 1.617482 1.827322 2.103568
  H 2.875354 -0.563012 -1.111120
  H 5.818948 -0.116817 -0.365751
  H 4.443738 -2.371802 -3.513118
  H 4.361213 -0.743705 -4.154202
  H 7.160789 -0.728721 -2.056795
