 29
 0.000000
  H 1.460812 0.161799 0.458908
  C 2.539260 0.145696 0.417137
  C 3.299441 0.615369 1.582807
  C 2.452194 1.088443 2.759685
  C 3.330838 1.554666 3.916381
  C 3.102378 -0.324501 -0.752837
  C 4.476021 -0.419631 -0.991169
  C 5.137919 -0.876311 -2.130940
  C 4.612194 -1.393116 -3.421241
  C 3.116725 -1.500548 -3.691183
  C 2.879462 -2.061310 -5.091293
  O 6.453087 -0.878691 -2.137169
  H 3.959458 1.434288 1.271971
  H 3.960678 -0.189691 1.925586
  H 1.810194 0.277180 3.107443
  H 1.809022 1.913629 2.448806
  H 3.966207 0.747421 4.273567
  H 2.714713 1.888651 4.747362
  H 3.964958 2.385092 3.614366
  H 2.420387 -0.634814 -1.524186
  H 5.117292 -0.094362 -0.181152
  H 5.063615 -2.383124 -3.556372
  H 5.064450 -0.770791 -4.202475
  H 2.647871 -0.517757 -3.632188
  H 2.647057 -2.170404 -2.970161
  H 3.315034 -1.415459 -5.849989
  H 1.813340 -2.139634 -5.288134
  H 3.314291 -3.052679 -5.194132
  H 6.862281 -0.549565 -1.313751
 29
 0.541413
  H 1.544307 -0.355212 0.701930
  C 2.604031 -0.220604 0.544093
  C 3.321358 0.579996 1.542535
  C 2.446243 1.068515 2.693185
  C 3.252433 1.887714 3.695219
  C 3.155205 -0.791083 -0.580291
  C 4.527363 -0.786358 -0.860975
  C 5.179606 -1.074520 -2.060483
  C 4.615966 -1.372755 -3.402217
  C 3.113337 -1.420030 -3.634914
  C 2.826033 -1.667633 -5.113367
  O 6.491937 -1.042322 -2.097851
  H 3.791966 1.442503 1.056946
  H 4.155434 -0.005919 1.947317
  H 2.000127 0.213834 3.203995
  H 1.631720 1.681101 2.302597
  H 4.057066 1.294826 4.125113
  H 2.615315 2.225789 4.508357
  H 3.685332 2.765978 3.221119
  H 2.486343 -1.309558 -1.246075
  H 5.179258 -0.555823 -0.025339
  H 5.057477 -2.324179 -3.718521
  H 5.056278 -0.634259 -4.083337
  H 2.654541 -0.476808 -3.344529
  H 2.666570 -2.231430 -3.062895
  H 3.244271 -0.874279 -5.730860
  H 1.754102 -1.699854 -5.288526
  H 3.249387 -2.615804 -5.439616
  H 6.929739 -0.857088 -1.245744
 29
 2.429322
  H 1.658710 -0.795216 0.859116
  C 2.697497 -0.581970 0.653068
  C 3.353078 0.406727 1.519673
  C 2.416289 1.076421 2.518278
  C 3.165149 2.064157 3.406877
  C 3.282795 -1.201099 -0.420152
  C 4.640657 -1.060834 -0.764902
  C 5.238869 -1.122644 -2.018139
  C 4.608529 -1.276538 -3.355895
  C 3.093328 -1.284251 -3.510396
  C 2.719479 -1.380418 -4.987547
  O 6.538739 -0.952210 -2.122086
  H 3.853123 1.173106 0.919148
  H 4.159150 -0.098230 2.066849
  H 1.940103 0.319170 3.143966
  H 1.626158 1.606416 1.980549
  H 3.969870 1.568031 3.948310
  H 2.491060 2.503948 4.136936
  H 3.592018 2.868922 2.816839
  H 2.676173 -1.874518 -1.002732
  H 5.297135 -0.801436 0.058674
  H 5.016345 -2.198661 -3.789142
  H 5.029513 -0.474595 -3.978988
  H 2.668390 -0.371759 -3.096038
  H 2.659417 -2.137854 -2.996210
  H 3.109314 -0.531688 -5.546644
  H 1.636021 -1.391369 -5.104700
  H 3.116013 -2.293807 -5.432388
  H 7.022217 -0.905306 -1.276917
 29
 6.070090
  H 1.791182 -1.149366 0.933320
  C 2.801750 -0.869534 0.670377
  C 3.363753 0.318324 1.341889
  C 2.392767 1.007270 2.290311
  C 3.036097 2.212382 2.965623
  C 3.444688 -1.572316 -0.299551
  C 4.803379 -1.389225 -0.669348
  C 5.335510 -1.232551 -1.938414
  C 4.607080 -1.137648 -3.228100
  C 3.084233 -1.173086 -3.248350
  C 2.570113 -0.976518 -4.673997
  O 6.632732 -1.071052 -2.097113
  H 3.727975 1.041289 0.610274
  H 4.253600 -0.003484 1.898552
  H 2.057421 0.301234 3.054739
  H 1.508989 1.338858 1.734321
  H 3.910710 1.916434 3.534888
  H 2.336097 2.682887 3.647397
  H 3.338020 2.951591 2.232668
  H 2.905049 -2.362303 -0.800364
  H 5.507874 -1.359008 0.153925
  H 4.992786 -1.942107 -3.871143
  H 4.956712 -0.217210 -3.710555
  H 2.682320 -0.382862 -2.612757
  H 2.715609 -2.129814 -2.880043
  H 2.893802 -0.019059 -5.079738
  H 1.485227 -0.997870 -4.690273
  H 2.932048 -1.764357 -5.330512
  H 7.165266 -1.156730 -1.285788
 29
 10.572848
  H 2.011905 -1.459269 0.993124
  C 2.979715 -1.103364 0.675753
  C 3.425846 0.199896 1.218656
  C 2.364813 0.904452 2.055466
  C 2.880618 2.226838 2.612409
  C 3.687327 -1.826922 -0.213176
  C 5.015999 -1.534541 -0.667444
  C 5.415370 -1.159559 -1.934846
  C 4.551616 -0.953958 -3.124867
  C 3.040372 -1.037366 -2.978294
  C 2.361158 -0.782080 -4.321134
  O 6.681734 -0.902404 -2.188315
  H 3.748976 0.864840 0.414316
  H 4.318069 0.018186 1.830339
  H 2.058421 0.259990 2.882230
  H 1.481152 1.097227 1.441605
  H 3.745906 2.068071 3.249633
  H 2.111056 2.715167 3.206082
  H 3.165200 2.903843 1.808384
  H 3.251139 -2.735823 -0.607732
  H 5.787637 -1.613947 0.088738
  H 4.876937 -1.683038 -3.878165
  H 4.829564 0.015777 -3.553236
  H 2.691899 -0.294246 -2.257543
  H 2.741707 -2.020593 -2.621131
  H 2.611280 0.205107 -4.704547
  H 1.281291 -0.838020 -4.213639
  H 2.666120 -1.521581 -5.056963
  H 7.293752 -1.046318 -1.443777
 29
 14.577622
  H 2.113394 -1.594022 0.999437
  C 3.062334 -1.216585 0.650556
  C 3.450735 0.152109 1.096763
  C 2.339160 0.862753 1.860605
  C 2.772307 2.253659 2.307180
  C 3.821219 -1.965977 -0.150520
  C 5.136865 -1.651417 -0.661479
  C 5.461862 -1.158929 -1.909920
  C 4.518990 -0.865263 -3.018805
  C 3.024421 -0.906623 -2.749744
  C 2.240523 -0.610874 -4.023768
  O 6.715771 -0.928017 -2.239006
  H 3.746801 0.750222 0.227430
  H 4.338953 0.082834 1.734719
  H 2.060911 0.275835 2.738208
  H 1.455412 0.947778 1.227433
  H 3.639808 2.198149 2.962486
  H 1.969196 2.742832 2.851870
  H 3.027768 2.873652 1.450320
  H 3.487244 -2.973877 -0.393252
  H 5.954035 -1.872130 0.019170
  H 4.760856 -1.563136 -3.830134
  H 4.794098 0.115513 -3.423343
  H 2.756516 -0.173187 -1.989291
  H 2.731434 -1.892424 -2.382090
  H 2.481000 0.378274 -4.407578
  H 1.172763 -0.644246 -3.826030
  H 2.462684 -1.340388 -4.798892
  H 7.372757 -1.129133 -1.546557
 29
 10.510512
  H 2.262104 -1.714253 1.098901
  C 3.173624 -1.319335 0.676222
  C 3.507146 0.088924 0.985785
  C 2.361227 0.856697 1.632354
  C 2.756945 2.298449 1.931387
  C 3.973258 -2.124485 -0.048907
  C 5.221868 -1.769316 -0.668290
  C 5.443103 -1.115256 -1.857598
  C 4.419877 -0.743012 -2.872388
  C 2.946237 -0.821964 -2.509341
  C 2.077131 -0.502272 -3.722959
  O 6.668428 -0.852953 -2.272641
  H 3.835221 0.584635 0.064646
  H 4.374069 0.123774 1.653227
  H 2.066782 0.367611 2.562112
  H 1.494180 0.849975 0.968945
  H 3.602266 2.336190 2.614027
  H 1.928665 2.830458 2.392611
  H 3.028780 2.823249 1.018186
  H 3.736635 -3.185455 -0.086344
  H 6.094838 -2.150261 -0.144290
  H 4.611039 -1.381337 -3.743777
  H 4.662494 0.267741 -3.220368
  H 2.709132 -0.119761 -1.711900
  H 2.700480 -1.827266 -2.156034
  H 2.273594 0.504640 -4.085086
  H 1.025237 -0.566939 -3.461350
  H 2.266022 -1.199700 -4.535865
  H 7.376830 -1.106344 -1.653425
 29
 8.738032
  H 2.364647 -1.721248 1.245383
  C 3.239688 -1.307804 0.760554
  C 3.513038 0.124892 0.983809
  C 2.335346 0.890462 1.575152
  C 2.687551 2.351841 1.797360
  C 4.059906 -2.133689 0.064260
  C 5.242046 -1.798945 -0.662902
  C 5.412414 -1.156522 -1.873215
  C 4.380125 -0.698757 -2.821879
  C 2.898011 -0.827851 -2.484295
  C 2.051086 -0.382174 -3.676548
  O 6.620458 -0.949061 -2.352698
  H 3.849885 0.588442 0.050646
  H 4.369586 0.224175 1.658981
  H 2.042097 0.442551 2.523702
  H 1.480317 0.823913 0.901126
  H 3.521376 2.450554 2.489238
  H 1.837811 2.886611 2.217811
  H 2.958952 2.830448 0.859986
  H 3.961457 -3.200663 0.249362
  H 6.111794 -2.350445 -0.300448
  H 4.570759 -1.263170 -3.739154
  H 4.619160 0.336822 -3.078135
  H 2.639472 -0.216687 -1.622179
  H 2.661215 -1.863390 -2.245895
  H 2.257503 0.652183 -3.930887
  H 0.998102 -0.465152 -3.441926
  H 2.247056 -0.997065 -4.552275
  H 7.357612 -1.258487 -1.779483
