 20
 0.000000
  C 0.952649 0.052922 0.197803
  C 2.454229 0.054637 0.167380
  C 3.232128 -0.018539 1.464265
  C 2.428078 -0.091559 2.758272
  H 3.114847 -0.139140 3.601564
  C 3.099217 0.120811 -1.005336
  H 2.575257 0.174093 -1.949634
  C 4.534957 0.129556 -1.160262
  C 5.130520 0.196743 -2.351057
  O 6.470469 0.208716 -2.563214
  H 0.572337 -0.004325 1.212308
  H 0.561075 -0.799154 -0.356669
  H 0.561077 0.961968 -0.257290
  H 3.880344 0.861487 1.525298
  H 3.880353 -0.899839 1.425914
  H 1.800510 -0.979616 2.785410
  H 1.800503 0.787803 2.885138
  H 5.157806 0.079742 -0.277401
  H 4.591736 0.249450 -3.285171
  H 6.932548 0.160941 -1.716438
 20
 -0.745169
  C 0.982562 0.079501 0.192825
  C 2.482828 0.088893 0.195108
  C 3.236733 -0.020841 1.494675
  C 2.395436 -0.127389 2.764793
  H 3.053381 -0.233417 3.623633
  C 3.131950 0.166546 -0.975417
  H 2.551312 0.237216 -1.888076
  C 4.561623 0.158479 -1.167333
  C 5.126738 0.212805 -2.374444
  O 6.458898 0.207067 -2.626251
  H 0.565815 0.315033 1.166788
  H 0.616481 -0.905069 -0.100151
  H 0.601402 0.800894 -0.530276
  H 3.893696 0.851391 1.587494
  H 3.883007 -0.905015 1.439413
  H 1.744293 -0.993795 2.731905
  H 1.794068 0.762252 2.917287
  H 5.196744 0.106828 -0.291335
  H 4.553624 0.266808 -3.289341
  H 6.945182 0.158684 -1.792763
 20
 0.186618
  C 0.980412 0.016648 0.199543
  C 2.482630 0.122537 0.196736
  C 3.229327 -0.103032 1.494024
  C 2.385244 -0.099994 2.765440
  H 3.021525 -0.308878 3.623939
  C 3.126858 0.214623 -0.972894
  H 2.550459 0.356559 -1.880510
  C 4.557629 0.197727 -1.166801
  C 5.121114 0.254131 -2.374814
  O 6.456465 0.236301 -2.630789
  H 0.609450 0.541134 1.071185
  H 0.686145 -1.026978 0.132101
  H 0.579134 0.539550 -0.667824
  H 3.986835 0.680712 1.589534
  H 3.763617 -1.056857 1.429913
  H 1.607293 -0.858500 2.724135
  H 1.917629 0.870237 2.923501
  H 5.189157 0.098312 -0.295056
  H 4.543826 0.301500 -3.288823
  H 6.942296 0.190820 -1.800031
 20
 6.920133
  C 0.978316 -0.071606 0.186887
  C 2.479094 0.171762 0.204653
  C 3.223701 -0.042983 1.497083
  C 2.391931 -0.060043 2.770166
  H 3.033115 -0.235591 3.631630
  C 3.121213 0.226488 -0.967719
  H 2.548987 0.413856 -1.868172
  C 4.545434 0.127465 -1.171372
  C 5.119601 0.312026 -2.363252
  O 6.441496 0.203949 -2.629785
  H 0.669654 0.445412 1.080980
  H 0.796575 -1.120484 0.005402
  H 0.531067 0.521545 -0.620455
  H 3.957456 0.773467 1.591623
  H 3.821691 -0.967356 1.439799
  H 1.648202 -0.858463 2.731019
  H 1.853255 0.876678 2.899068
  H 5.167400 -0.116904 -0.314141
  H 4.559860 0.576372 -3.249389
  H 6.917979 -0.027730 -1.818055
 20
 26.956402
  C 0.947725 -0.153910 0.169480
  C 2.475918 0.115547 0.225942
  C 3.212988 -0.067013 1.531029
  C 2.376509 0.021593 2.804378
  H 2.967719 -0.260668 3.659338
  C 3.116799 0.176517 -0.944695
  H 2.527373 0.331474 -1.848204
  C 4.547626 0.105044 -1.168880
  C 5.107694 0.363560 -2.361183
  O 6.431827 0.299350 -2.643107
  H 0.872127 0.391220 1.067076
  H 0.838001 -1.146333 -0.186835
  H 0.479998 0.570469 -0.514818
  H 4.029964 0.646962 1.568263
  H 3.676438 -1.065109 1.506318
  H 1.560380 -0.696823 2.743287
  H 1.910008 0.999238 2.927394
  H 5.186725 -0.099197 -0.332832
  H 4.535014 0.621206 -3.237752
  H 6.921825 -0.046667 -1.859111
 20
 65.794894
  C 0.891431 -0.178119 0.222826
  C 2.515157 0.259830 0.262416
  C 3.225610 -0.035664 1.561514
  C 2.307584 -0.059057 2.786406
  H 2.879024 -0.374236 3.648897
  C 3.111579 0.335988 -0.914296
  H 2.513919 0.540064 -1.794459
  C 4.529425 0.173747 -1.159240
  C 5.073993 0.286911 -2.383401
  O 6.386888 0.151962 -2.684651
  H 1.127586 0.616080 0.891022
  H 1.122889 -1.174306 -0.024377
  H 0.443947 0.346732 -0.644732
  H 4.023509 0.683090 1.703294
  H 3.639214 -1.052524 1.459485
  H 1.473798 -0.726891 2.651089
  H 1.936932 0.943974 3.007912
  H 5.156577 -0.059659 -0.318549
  H 4.481473 0.466273 -3.271581
  H 6.886048 -0.038133 -1.887391
 20
 93.486324
  C 0.733019 -0.186917 0.242902
  C 2.550085 0.240171 0.290467
  C 3.241730 -0.059896 1.589153
  C 2.318325 -0.051563 2.804021
  H 2.875832 -0.328942 3.694825
  C 3.139272 0.321054 -0.898984
  H 2.539504 0.525750 -1.776126
  C 4.552366 0.171557 -1.148287
  C 5.076982 0.256325 -2.373275
  O 6.383052 0.111406 -2.687336
  H 1.325702 0.618525 0.714033
  H 1.006307 -1.124168 -0.208139
  H 0.281986 0.434564 -0.558017
  H 4.037007 0.678011 1.736665
  H 3.714124 -1.045274 1.514840
  H 1.502200 -0.752901 2.661785
  H 1.896973 0.939425 2.963689
  H 5.196184 -0.026630 -0.302376
  H 4.478372 0.451494 -3.251778
  H 6.897174 -0.066222 -1.890765
 20
 102.200762
  C 0.654005 -0.234540 0.264581
  C 2.575606 0.250963 0.306406
  C 3.262996 -0.046497 1.604480
  C 2.324002 -0.023443 2.805257
  H 2.863729 -0.301345 3.707343
  C 3.158443 0.319996 -0.894239
  H 2.562842 0.534747 -1.772264
  C 4.567980 0.143278 -1.140351
  C 5.101152 0.250678 -2.361125
  O 6.402988 0.092760 -2.671494
  H 1.443119 0.596054 0.557941
  H 0.917162 -1.102827 -0.332624
  H 0.122864 0.442607 -0.444520
  H 4.059147 0.691410 1.754370
  H 3.736350 -1.031620 1.540265
  H 1.504740 -0.719134 2.648818
  H 1.905887 0.970410 2.948751
  H 5.203487 -0.088419 -0.295987
  H 4.510638 0.479131 -3.236773
  H 6.911756 -0.118108 -1.877345
 20
 105.020690
  C 0.738013 -0.324052 0.264522
  C 2.578148 0.306183 0.322375
  C 3.268234 0.000580 1.618113
  C 2.314584 -0.035962 2.806344
  H 2.851510 -0.309816 3.711142
  C 3.164726 0.363073 -0.885291
  H 2.567857 0.587141 -1.760204
  C 4.560994 0.138068 -1.136575
  C 5.095963 0.225423 -2.360240
  O 6.395226 0.044652 -2.668438
  H 1.526565 0.692955 0.465906
  H 0.982446 -1.020259 -0.547485
  H 0.020887 0.383282 -0.209847
  H 4.036137 0.762789 1.794950
  H 3.777109 -0.965030 1.534565
  H 1.525581 -0.758405 2.619110
  H 1.855579 0.938169 2.960936
  H 5.193669 -0.103333 -0.293090
  H 4.510486 0.462749 -3.236562
  H 6.899366 -0.170971 -1.872513
 20
 90.381862
  C 0.982860 -0.325198 0.200256
  C 2.479859 0.286980 0.346960
  C 3.216199 -0.028574 1.615804
  C 2.278402 -0.116077 2.819104
  H 2.847636 -0.353828 3.715893
  C 3.107923 0.404626 -0.914604
  H 2.481465 0.569439 -1.774618
  C 4.469236 0.093621 -1.145638
  C 5.020189 0.077741 -2.379893
  O 6.331843 0.015522 -2.646710
  H 1.834552 1.141516 0.474753
  H 1.155775 -1.047242 -0.624639
  H 0.189334 0.313869 -0.199792
  H 3.934827 0.793026 1.812968
  H 3.787992 -0.933024 1.534047
  H 1.530013 -0.875348 2.664245
  H 1.773611 0.838030 2.991984
  H 5.101214 -0.053153 -0.289485
  H 4.444734 0.204441 -3.276025
  H 6.838557 -0.086951 -1.832161
 20
 67.559938
  C 1.240262 -0.464625 0.090511
  C 2.429694 0.430754 0.368272
  C 3.206304 0.183641 1.676647
  C 2.258134 -0.154248 2.817941
  H 2.818490 -0.393717 3.722767
  C 3.074600 0.554758 -0.916503
  H 2.461877 0.817137 -1.772882
  C 4.399647 0.140006 -1.154713
  C 4.956244 0.098404 -2.383405
  O 6.217902 -0.280554 -2.657562
  H 1.817755 1.305064 0.607378
  H 1.522737 -1.154730 -0.702758
  H 0.319729 0.033426 -0.232206
  H 3.810284 1.060663 1.920427
  H 3.854118 -0.675939 1.516558
  H 1.647005 -1.009545 2.543891
  H 1.597405 0.685886 3.030451
  H 5.008772 -0.138041 -0.299638
  H 4.417318 0.376381 -3.274365
  H 6.667179 -0.530812 -1.848498
 20
 61.815828
  C 1.213861 -0.458421 0.082555
  C 2.387835 0.422313 0.344295
  C 3.187863 0.144898 1.625553
  C 2.263883 -0.106426 2.809125
  H 2.841890 -0.362130 3.694098
  C 3.082004 0.488279 -0.935851
  H 2.488713 0.741289 -1.800928
  C 4.413536 0.117629 -1.153981
  C 4.997866 0.091083 -2.381118
  O 6.300159 -0.167770 -2.617973
  H 1.916603 1.402879 0.479580
  H 1.356068 -1.159498 -0.734533
  H 0.236108 -0.001166 0.087731
  H 3.833146 1.001039 1.837129
  H 3.823416 -0.729938 1.477092
  H 1.585085 -0.924350 2.580466
  H 1.671262 0.778886 3.027853
  H 5.023627 -0.125846 -0.293024
  H 4.458349 0.312899 -3.289013
  H 6.753613 -0.355402 -1.787113
 20
 -0.670521
  C 1.819670 -0.423078 -0.383382
  C 2.361754 0.659147 0.496928
  C 3.155060 0.309670 1.734915
  C 2.224845 -0.097948 2.874435
  H 2.798112 -0.381505 3.754165
  C 2.887605 0.511486 -0.907302
  H 2.558758 1.256603 -1.622584
  C 4.230735 -0.012861 -1.202841
  C 4.821118 0.136559 -2.381201
  O 6.049279 -0.333917 -2.720606
  H 1.703381 1.506196 0.655336
  H 2.103979 -1.442160 -0.167885
  H 0.816133 -0.331395 -0.770068
  H 3.748130 1.175707 2.041580
  H 3.842060 -0.510662 1.526529
  H 1.608529 -0.942017 2.574744
  H 1.567674 0.726340 3.143123
  H 4.738397 -0.560155 -0.420007
  H 4.368849 0.672598 -3.202214
  H 6.430820 -0.808362 -1.971721
