24

C      1.436681   -0.516100    0.926842
C      4.017493    0.945168    0.966117
C      4.442387    1.024225   -0.452905
H      4.572796   -0.222714   -1.095104
C      0.520277    0.385936    0.197237
C     -0.963879   -0.082247    0.225531
C     -1.800803    0.987014   -0.487055
C     -3.296089    0.997630   -0.157719
O     -3.957766    2.073790   -0.786049
H     -1.039325   -1.490594   -0.374922
H      1.247110   -0.640142    1.981909
H      1.733787   -1.425303    0.431230
H      3.761494    1.888598    1.420338
H      4.623676    0.318786    1.605101
H      3.723282    1.592648   -1.049912
H      5.415878    1.560857   -0.498073
H      0.838578    0.481578   -0.842923
H      0.562406    1.377433    0.656416
H     -1.285749   -0.129405    1.270156
H     -1.419662    1.964201   -0.167090
H     -1.656709    0.922480   -1.567889
H     -3.426946    1.050724    0.932697
H     -3.811633    0.111171   -0.516181
H     -3.511408    2.894030   -0.547344
