 20
 0.000000
  C 0.282591 -2.435304 0.560212
  C 0.231802 -1.012361 1.111282
  C 1.514134 -0.689784 1.876737
  C 0.004189 -0.006186 0.000119
  O 0.010423 -0.324335 -1.173236
  C -0.240850 1.422871 0.405920
  H 0.394523 -3.156405 1.365728
  H 1.113539 -2.561968 -0.128392
  H -0.630995 -2.673170 0.019812
  H -0.624553 -0.938924 1.789780
  H 2.376421 -0.688125 1.213786
  H 1.686993 -1.424134 2.657931
  H 1.458041 0.288181 2.349511
  H -0.350738 1.515251 1.483063
  H -1.156067 1.770868 -0.062806
  H 0.590875 2.037178 0.077161
  O 4.768411 0.168888 0.056677
  H 4.959427 1.129960 0.106940
  H 3.806556 -0.000743 0.002970
  H 5.177489 -0.317802 0.803343
 20
 1.376898
  C 0.307621 -2.447570 0.570537
  C 0.253731 -1.024364 1.117177
  C 1.509389 -0.700291 1.913114
  C 0.123547 -0.007122 -0.003219
  O 0.198607 -0.315608 -1.164499
  C -0.120104 1.413304 0.420848
  H 0.369836 -3.163574 1.384990
  H 1.164038 -2.583090 -0.083484
  H -0.586461 -2.662615 -0.009665
  H -0.630651 -0.929227 1.753613
  H 2.330342 -0.722934 1.211531
  H 1.678747 -1.434605 2.692726
  H 1.449710 0.279132 2.374638
  H -0.278045 1.499703 1.490008
  H -1.002927 1.777211 -0.100917
  H 0.710579 2.044610 0.118691
  O 4.560807 0.199779 0.020999
  H 4.744179 1.163141 0.080354
  H 3.599951 0.015773 -0.028477
  H 4.987057 -0.295265 0.754214
 20
 2.046698
  C 0.286063 -2.452348 0.586339
  C 0.274910 -1.029261 1.127549
  C 1.547921 -0.744236 1.937384
  C 0.245411 -0.012519 0.002377
  O 0.436881 -0.321528 -1.163986
  C -0.025182 1.408646 0.411631
  H 0.301637 -3.167395 1.402873
  H 1.149759 -2.622073 -0.048583
  H -0.601836 -2.635850 -0.013038
  H -0.618834 -0.886804 1.737813
  H 2.354689 -0.813587 1.218964
  H 1.688121 -1.486362 2.714097
  H 1.515114 0.238034 2.389661
  H -0.243552 1.499817 1.467777
  H -0.877868 1.765218 -0.162020
  H 0.808164 2.049260 0.141645
  O 4.358152 0.268869 0.003808
  H 4.520463 1.232156 0.084713
  H 3.396052 0.054379 -0.043294
  H 4.813418 -0.236930 0.710050
 20
 3.880146
  C 0.278036 -2.468034 0.594117
  C 0.302623 -1.034186 1.127326
  C 1.566369 -0.785346 1.957008
  C 0.363673 -0.014048 0.000458
  O 0.634947 -0.316479 -1.139484
  C 0.085658 1.413855 0.401108
  H 0.247027 -3.175787 1.414654
  H 1.150400 -2.675309 -0.014967
  H -0.596326 -2.626601 -0.024924
  H -0.606960 -0.851784 1.711019
  H 2.360051 -0.907896 1.243866
  H 1.680846 -1.518828 2.750646
  H 1.561034 0.205734 2.392520
  H -0.170296 1.507007 1.445684
  H -0.746329 1.769558 -0.200209
  H 0.923854 2.056106 0.160259
  O 4.132985 0.327461 -0.017023
  H 4.261862 1.294439 0.081207
  H 3.184890 0.080200 -0.061882
  H 4.623302 -0.175016 0.672621
 20
 4.047206
  C 0.253453 -2.469639 0.600237
  C 0.330407 -1.042792 1.127654
  C 1.566788 -0.849262 2.002206
  C 0.488818 -0.025833 0.008149
  O 0.846892 -0.329749 -1.116297
  C 0.206685 1.396189 0.389706
  H 0.158163 -3.169979 1.420654
  H 1.138408 -2.721591 0.026131
  H -0.608275 -2.589173 -0.053223
  H -0.588554 -0.803786 1.672237
  H 2.399785 -1.042824 1.331954
  H 1.612036 -1.564581 2.810659
  H 1.591098 0.151666 2.421677
  H -0.085371 1.495467 1.432296
  H -0.610814 1.747235 -0.240002
  H 1.050218 2.042936 0.169259
  O 3.918460 0.423505 -0.068486
  H 4.007509 1.391507 0.045034
  H 2.974579 0.128555 -0.096812
  H 4.449173 -0.070412 0.594976
 20
 3.569320
  C 0.231201 -2.465095 0.590400
  C 0.366438 -1.045850 1.131235
  C 1.538920 -0.928277 2.080898
  C 0.638369 -0.028914 0.032027
  O 1.114585 -0.327315 -1.050758
  C 0.313211 1.381733 0.387561
  H 0.052316 -3.160885 1.401947
  H 1.128915 -2.768276 0.064841
  H -0.598058 -2.531389 -0.103895
  H -0.571437 -0.748716 1.625471
  H 2.420869 -1.196527 1.513759
  H 1.471291 -1.627048 2.919198
  H 1.604387 0.071949 2.489468
  H -0.014002 1.483493 1.407192
  H -0.495556 1.699064 -0.269786
  H 1.137024 2.055356 0.184498
  O 3.712016 0.512244 -0.171780
  H 3.772902 1.490621 -0.071537
  H 2.779984 0.176808 -0.154980
  H 4.300892 0.044550 0.453293
 20
 5.688978
  C 0.231367 -2.455668 0.560875
  C 0.385020 -1.050553 1.141463
  C 1.494332 -0.994611 2.164103
  C 0.745893 -0.026620 0.061330
  O 1.267223 -0.351855 -0.998220
  C 0.390802 1.390246 0.381409
  H -0.004297 -3.165433 1.349836
  H 1.147078 -2.773847 0.067937
  H -0.571295 -2.482097 -0.174071
  H -0.550526 -0.741710 1.606195
  H 2.415360 -1.339176 1.717597
  H 1.303438 -1.633228 3.021134
  H 1.606970 0.012098 2.554928
  H 0.074521 1.511109 1.409104
  H -0.448169 1.658143 -0.271635
  H 1.184615 2.091774 0.139856
  O 3.553682 0.567462 -0.262964
  H 3.613198 1.539323 -0.163688
  H 2.599061 0.207129 -0.195606
  H 4.186921 0.108220 0.320040
 20
 12.500107
  C 0.247843 -2.435900 0.538858
  C 0.421108 -1.040079 1.140087
  C 1.475261 -1.029154 2.232324
  C 0.808317 -0.038515 0.048441
  O 1.222268 -0.415935 -1.042591
  C 0.475322 1.388579 0.351398
  H -0.031642 -3.146384 1.311811
  H 1.171376 -2.773505 0.072705
  H -0.529736 -2.433986 -0.221207
  H -0.519884 -0.704271 1.578612
  H 2.405711 -1.455437 1.871488
  H 1.138166 -1.686687 3.075174
  H 1.622641 -0.018740 2.611581
  H 0.236276 1.538739 1.398892
  H -0.414442 1.618557 -0.237388
  H 1.222879 2.100270 0.025313
  O 3.391107 0.616849 -0.277708
  H 3.468386 1.583166 -0.162347
  H 2.422261 0.240018 -0.194464
  H 4.052606 0.146887 0.268570
 20
 19.449017
  C 0.275287 -2.413737 0.526594
  C 0.447894 -1.027734 1.111161
  C 1.477587 -1.033860 2.233919
  C 0.825017 -0.023888 0.008558
  O 1.114199 -0.419768 -1.119134
  C 0.492594 1.413514 0.318699
  H -0.020879 -3.114211 1.302622
  H 1.199668 -2.761958 0.079493
  H -0.490997 -2.412544 -0.246839
  H -0.504709 -0.683523 1.524556
  H 2.411373 -1.477568 1.902385
  H 1.169423 -1.653572 3.075477
  H 1.649494 -0.032555 2.617370
  H 0.333991 1.575030 1.377776
  H -0.453085 1.613893 -0.201685
  H 1.197854 2.142919 -0.087298
  O 3.263959 0.567831 -0.199398
  H 3.385086 1.522738 -0.039212
  H 2.266964 0.219369 -0.152098
  H 3.898221 0.046124 0.333048
 20
 27.942111
  C 0.281787 -2.411547 0.523918
  C 0.455141 -1.014780 1.112446
  C 1.485367 -1.022408 2.229580
  C 0.831176 -0.005275 -0.009184
  O 1.064597 -0.404851 -1.154057
  C 0.496713 1.432779 0.295225
  H -0.013648 -3.113064 1.301997
  H 1.213262 -2.764893 0.072687
  H -0.486571 -2.412072 -0.249447
  H -0.491054 -0.668452 1.523506
  H 2.414563 -1.465147 1.880870
  H 1.171581 -1.651314 3.054501
  H 1.666332 -0.027107 2.615585
  H 0.371951 1.606122 1.357432
  H -0.461771 1.617403 -0.190466
  H 1.175849 2.149476 -0.142491
  O 3.185409 0.531673 -0.145264
  H 3.319103 1.479835 0.039095
  H 2.131874 0.193570 -0.121765
  H 3.809089 -0.011541 0.378367
 20
 35.460213
  C 0.284039 -2.400670 0.521960
  C 0.458189 -1.010718 1.110388
  C 1.495687 -1.016184 2.219301
  C 0.826897 0.003642 -0.021967
  O 1.002011 -0.398861 -1.180467
  C 0.477917 1.446485 0.276710
  H -0.009126 -3.100959 1.300284
  H 1.218413 -2.755881 0.064513
  H -0.485046 -2.399004 -0.245957
  H -0.489978 -0.664519 1.518344
  H 2.420468 -1.455019 1.853142
  H 1.205027 -1.649394 3.050542
  H 1.682171 -0.019744 2.603137
  H 0.393242 1.634525 1.338566
  H -0.504557 1.609118 -0.175796
  H 1.135005 2.163492 -0.201857
  O 3.138876 0.494499 -0.091586
  H 3.283637 1.435085 0.119875
  H 2.026194 0.169987 -0.094113
  H 3.750436 -0.069053 0.422181
 20
 42.208844
  C 0.286359 -2.392910 0.518403
  C 0.460211 -1.004257 1.107161
  C 1.516564 -1.004370 2.203479
  C 0.809869 0.009690 -0.034215
  O 0.928369 -0.396038 -1.203182
  C 0.452741 1.456311 0.260890
  H 0.001995 -3.095504 1.300718
  H 1.216655 -2.744633 0.052855
  H -0.488461 -2.393151 -0.242292
  H -0.488709 -0.654490 1.518560
  H 2.437495 -1.433137 1.817346
  H 1.245913 -1.643470 3.038115
  H 1.701386 -0.007411 2.587406
  H 0.410817 1.658533 1.324254
  H -0.549509 1.604082 -0.156836
  H 1.086424 2.165033 -0.253021
  O 3.104475 0.457159 -0.038904
  H 3.253950 1.388829 0.203406
  H 1.933797 0.147524 -0.071476
  H 3.692946 -0.126572 0.475097
 20
 48.038212
  C 0.270225 -2.402136 0.515338
  C 0.457159 -1.010705 1.102023
  C 1.536724 -1.003039 2.176369
  C 0.769623 0.016196 -0.059188
  O 0.821915 -0.389715 -1.239991
  C 0.419803 1.464648 0.247428
  H 0.005804 -3.101379 1.300220
  H 1.186279 -2.752782 0.030526
  H -0.521089 -2.404011 -0.228134
  H -0.483595 -0.664909 1.533972
  H 2.462121 -1.415447 1.771327
  H 1.283499 -1.647759 3.013234
  H 1.707840 -0.001370 2.562591
  H 0.438130 1.671440 1.312485
  H -0.600889 1.607421 -0.117206
  H 1.037047 2.178211 -0.314725
  O 3.129725 0.457984 0.021597
  H 3.265142 1.388184 0.301724
  H 1.851753 0.124235 -0.068326
  H 3.705901 -0.151954 0.576373
 20
 53.290576
  C 0.284333 -2.398954 0.521861
  C 0.468312 -1.008374 1.103104
  C 1.554269 -0.995062 2.173088
  C 0.752235 0.022873 -0.063341
  O 0.772144 -0.382835 -1.246087
  C 0.399356 1.470265 0.249676
  H 0.027810 -3.107956 1.318567
  H 1.187018 -2.741680 0.037414
  H -0.514864 -2.406493 -0.219849
  H -0.474057 -0.662194 1.540660
  H 2.475335 -1.398824 1.758086
  H 1.305440 -1.649148 3.006093
  H 1.720517 -0.000971 2.565823
  H 0.460022 1.686745 1.314497
  H -0.636865 1.607457 -0.078976
  H 0.981449 2.168865 -0.329293
  O 3.102247 0.428624 0.027395
  H 3.237300 1.341348 0.329733
  H 1.791662 0.124508 -0.060855
  H 3.634040 -0.177902 0.556888
