 32
 0.000000
  C 0.955700 0.140299 0.407383
  C 2.430528 0.139736 0.399117
  C 3.225972 0.608302 1.561834
  C 2.459834 1.100379 2.787902
  C 3.427702 1.541370 3.881590
  C 3.042649 -0.328508 -0.766081
  C 4.423507 -0.412514 -0.972827
  C 5.112135 -0.862210 -2.093395
  C 4.618955 -1.384073 -3.397487
  C 3.129527 -1.502430 -3.697952
  C 2.927546 -2.064784 -5.102432
  O 6.430076 -0.855583 -2.073452
  H 0.530811 0.511058 1.332280
  H 0.585462 -0.871198 0.234071
  H 0.578600 0.748562 -0.416378
  H 3.883134 1.417986 1.224026
  H 3.885234 -0.208346 1.878116
  H 1.824613 0.305680 3.182280
  H 1.822568 1.945521 2.522872
  H 4.064118 0.716694 4.194648
  H 2.879773 1.891021 4.752920
  H 4.062069 2.354518 3.536008
  H 2.372771 -0.642662 -1.548919
  H 5.050971 -0.084008 -0.152885
  H 5.081282 -2.370460 -3.521374
  H 5.083589 -0.757265 -4.167745
  H 2.652432 -0.523676 -3.648152
  H 2.650241 -2.175025 -2.986718
  H 3.375300 -1.415318 -5.850836
  H 1.867266 -2.152260 -5.324337
  H 3.373191 -3.052321 -5.195046
  H 6.823163 -0.525235 -1.245911
 32
 2.355516
  C 1.051310 0.147738 0.307023
  C 2.511301 0.172745 0.394536
  C 3.262160 0.618313 1.586450
  C 2.440908 1.093825 2.782565
  C 3.356514 1.519904 3.926422
  C 3.109017 -0.291603 -0.749595
  C 4.476218 -0.383753 -0.990721
  C 5.134480 -0.850052 -2.120050
  C 4.601911 -1.387055 -3.400810
  C 3.103906 -1.501045 -3.650994
  C 2.854210 -2.081120 -5.040923
  O 6.452215 -0.847840 -2.135874
  H 0.539399 0.430768 1.217802
  H 0.786345 -0.873431 0.004435
  H 0.700097 0.788407 -0.502916
  H 3.936277 1.429328 1.286060
  H 3.909312 -0.203516 1.914566
  H 1.789235 0.292897 3.135318
  H 1.816359 1.942108 2.498123
  H 3.978366 0.690961 4.257069
  H 2.768741 1.857597 4.776394
  H 4.005825 2.337663 3.621789
  H 2.379634 -0.612871 -1.484863
  H 5.124002 -0.044618 -0.190709
  H 5.057411 -2.376332 -3.525929
  H 5.047105 -0.774145 -4.193248
  H 2.635275 -0.518378 -3.599093
  H 2.646174 -2.162243 -2.915296
  H 3.281764 -1.444144 -5.811661
  H 1.787029 -2.166298 -5.228619
  H 3.292606 -3.071914 -5.134304
  H 6.870981 -0.507380 -1.323597
 32
 6.574788
  C 1.113354 0.173753 0.294479
  C 2.562708 0.209004 0.418403
  C 3.284311 0.629507 1.616807
  C 2.422560 1.096664 2.798770
  C 3.298981 1.509904 3.977376
  C 3.153307 -0.269323 -0.750547
  C 4.494683 -0.363565 -1.010826
  C 5.146324 -0.841279 -2.143481
  C 4.592476 -1.404625 -3.434532
  C 3.084617 -1.528393 -3.665451
  C 2.815815 -2.122577 -5.044558
  O 6.483991 -0.830659 -2.166016
  H 0.544080 0.336319 1.197220
  H 0.953459 -0.797703 -0.174621
  H 0.800959 0.905580 -0.448942
  H 3.975705 1.445717 1.339434
  H 3.924674 -0.205920 1.946276
  H 1.761380 0.294281 3.119961
  H 1.809481 1.945010 2.500879
  H 3.908734 0.677476 4.318869
  H 2.684327 1.838578 4.810142
  H 3.958070 2.329347 3.703877
  H 2.358235 -0.589500 -1.411138
  H 5.148585 -0.007959 -0.215618
  H 5.053161 -2.395597 -3.557690
  H 5.027250 -0.798554 -4.242415
  H 2.615702 -0.549224 -3.615578
  H 2.643779 -2.182651 -2.918395
  H 3.229395 -1.492115 -5.827105
  H 1.747755 -2.213881 -5.215681
  H 3.256895 -3.111679 -5.134917
  H 6.899060 -0.483915 -1.371781
 32
 12.464033
  C 1.137139 0.155677 0.233050
  C 2.593506 0.212467 0.410824
  C 3.302025 0.633426 1.631072
  C 2.415425 1.094513 2.789791
  C 3.261846 1.510769 3.989158
  C 3.183094 -0.270602 -0.754712
  C 4.537614 -0.368639 -1.034460
  C 5.169852 -0.852430 -2.175883
  C 4.595049 -1.405485 -3.429115
  C 3.089875 -1.516550 -3.613272
  C 2.776601 -2.110133 -4.983608
  O 6.487255 -0.850404 -2.228676
  H 0.522104 0.195903 1.119588
  H 1.074530 -0.765482 -0.382238
  H 0.831393 0.963532 -0.431906
  H 3.995700 1.446668 1.373100
  H 3.934785 -0.198666 1.968675
  H 1.749232 0.287626 3.094227
  H 1.803830 1.940216 2.475952
  H 3.867951 0.680224 4.344160
  H 2.625302 1.835923 4.808558
  H 3.924121 2.334465 3.731783
  H 2.343491 -0.594032 -1.383553
  H 5.200132 -0.013487 -0.252728
  H 5.043492 -2.394652 -3.561006
  H 5.011099 -0.806190 -4.244428
  H 2.630108 -0.530806 -3.549074
  H 2.666677 -2.168248 -2.849323
  H 3.172418 -1.482759 -5.779636
  H 1.701683 -2.193716 -5.123335
  H 3.208227 -3.103718 -5.085918
  H 6.931166 -0.496069 -1.426425
 32
 21.110386
  C 1.159753 0.153879 0.221492
  C 2.606187 0.219066 0.425168
  C 3.306380 0.641466 1.656363
  C 2.415530 1.098520 2.794385
  C 3.248860 1.518219 4.001620
  C 3.193895 -0.265538 -0.737429
  C 4.548995 -0.367958 -1.032051
  C 5.173185 -0.856087 -2.180402
  C 4.592079 -1.411933 -3.436099
  C 3.084999 -1.523992 -3.617322
  C 2.767530 -2.119609 -4.994143
  O 6.483602 -0.856109 -2.241282
  H 0.523611 0.107907 1.093515
  H 1.181455 -0.721323 -0.492905
  H 0.844462 1.005151 -0.378414
  H 3.996164 1.445440 1.411560
  H 3.930653 -0.181678 1.998548
  H 1.744866 0.285612 3.092636
  H 1.802815 1.945954 2.468623
  H 3.853412 0.688976 4.364251
  H 2.602587 1.843311 4.814284
  H 3.912694 2.343683 3.749665
  H 2.306841 -0.589117 -1.332806
  H 5.214516 -0.017839 -0.263316
  H 5.041552 -2.405684 -3.568452
  H 5.007216 -0.808394 -4.255346
  H 2.624605 -0.535846 -3.550765
  H 2.663890 -2.178542 -2.850221
  H 3.160619 -1.492279 -5.790311
  H 1.691216 -2.204187 -5.132278
  H 3.199118 -3.112051 -5.098809
  H 6.921586 -0.508809 -1.458757
 32
 29.242272
  C 1.187374 0.120920 0.205006
  C 2.636009 0.211234 0.419483
  C 3.317814 0.645396 1.648296
  C 2.400060 1.097384 2.779808
  C 3.207309 1.538561 3.992736
  C 3.232795 -0.277575 -0.743204
  C 4.584014 -0.387383 -1.041611
  C 5.195078 -0.876263 -2.188450
  C 4.594008 -1.419033 -3.435303
  C 3.077703 -1.509506 -3.591582
  C 2.728950 -2.089340 -4.959529
  O 6.515569 -0.888949 -2.260265
  H 0.552397 -0.050198 1.065215
  H 1.277006 -0.669271 -0.614408
  H 0.835911 1.030727 -0.300902
  H 4.005526 1.462198 1.403986
  H 3.952402 -0.172928 2.001903
  H 1.743742 0.280940 3.072858
  H 1.780251 1.925416 2.443565
  H 3.821636 0.722594 4.368170
  H 2.545087 1.856747 4.794243
  H 3.859023 2.373652 3.744058
  H 2.297732 -0.608995 -1.304210
  H 5.260885 -0.042763 -0.267865
  H 5.029405 -2.413801 -3.577479
  H 5.002976 -0.819352 -4.255578
  H 2.633156 -0.516831 -3.511032
  H 2.661814 -2.161965 -2.823243
  H 3.117405 -1.461256 -5.759749
  H 1.649987 -2.157893 -5.078379
  H 3.145644 -3.088452 -5.077397
  H 6.969914 -0.544176 -1.471851
 32
 40.607106
  C 1.194434 0.090304 0.233351
  C 2.635193 0.189097 0.434956
  C 3.318008 0.648632 1.652355
  C 2.401016 1.108254 2.780791
  C 3.209900 1.582091 3.983578
  C 3.232793 -0.303122 -0.724415
  C 4.579342 -0.418437 -1.025808
  C 5.190408 -0.898916 -2.179034
  C 4.593123 -1.424188 -3.443162
  C 3.075309 -1.505565 -3.614635
  C 2.736008 -2.061378 -4.991582
  O 6.503284 -0.918332 -2.243032
  H 0.577119 -0.141755 1.094798
  H 1.329996 -0.670864 -0.655890
  H 0.807812 1.015039 -0.223307
  H 3.991707 1.464484 1.393470
  H 3.957390 -0.152243 2.013008
  H 1.755214 0.287404 3.092355
  H 1.766719 1.923251 2.433093
  H 3.838837 0.778953 4.370676
  H 2.546360 1.905879 4.784465
  H 3.850736 2.423525 3.716097
  H 2.241822 -0.632349 -1.262345
  H 5.258139 -0.093517 -0.247076
  H 5.024988 -2.417846 -3.595575
  H 5.011006 -0.815683 -4.250585
  H 2.634792 -0.513568 -3.522943
  H 2.650461 -2.167494 -2.861839
  H 3.133621 -1.422953 -5.778290
  H 1.658493 -2.123080 -5.119967
  H 3.149211 -3.059998 -5.121384
  H 6.957710 -0.582628 -1.440103
 32
 52.720787
  C 1.205403 0.080681 0.245204
  C 2.630373 0.177543 0.434314
  C 3.312464 0.648794 1.651231
  C 2.397186 1.111881 2.774230
  C 3.206137 1.598155 3.970946
  C 3.238523 -0.313742 -0.716952
  C 4.586091 -0.431691 -1.019331
  C 5.196280 -0.908471 -2.174306
  C 4.594934 -1.424880 -3.443118
  C 3.078711 -1.497186 -3.610460
  C 2.731513 -2.042611 -4.992827
  O 6.510204 -0.932944 -2.239684
  H 0.599937 -0.174350 1.114090
  H 1.365538 -0.682654 -0.692958
  H 0.798664 1.000635 -0.197277
  H 3.981831 1.466997 1.387556
  H 3.955101 -0.148478 2.017683
  H 1.755430 0.290999 3.093007
  H 1.759158 1.921075 2.421102
  H 3.838847 0.801123 4.362725
  H 2.542784 1.925380 4.770529
  H 3.842638 2.439627 3.695668
  H 2.187953 -0.649892 -1.248601
  H 5.265728 -0.115975 -0.238072
  H 5.023277 -2.422426 -3.604484
  H 5.015298 -0.812064 -4.251038
  H 2.644312 -0.504007 -3.510271
  H 2.653783 -2.162535 -2.861175
  H 3.129129 -1.401653 -5.775859
  H 1.653908 -2.098121 -5.118176
  H 3.138782 -3.041127 -5.131289
  H 6.965581 -0.603065 -1.435506
 32
 62.726864
  C 1.189623 0.045809 0.249273
  C 2.623898 0.149932 0.423534
  C 3.313518 0.646573 1.637170
  C 2.398950 1.116394 2.759239
  C 3.208921 1.629938 3.941802
  C 3.240831 -0.342901 -0.719393
  C 4.592099 -0.462443 -1.011508
  C 5.205662 -0.927308 -2.163633
  C 4.602093 -1.419043 -3.429776
  C 3.090253 -1.470635 -3.582528
  C 2.721567 -1.993074 -4.971990
  O 6.529233 -0.961205 -2.228752
  H 0.597390 -0.227362 1.115640
  H 1.376305 -0.727860 -0.744521
  H 0.765396 0.944263 -0.188096
  H 3.976522 1.474066 1.355892
  H 3.972204 -0.146487 2.015679
  H 1.768330 0.292111 3.095522
  H 1.748424 1.913991 2.397388
  H 3.850981 0.849701 4.339867
  H 2.549124 1.960702 4.738435
  H 3.831378 2.471095 3.650655
  H 2.137400 -0.692532 -1.263133
  H 5.267042 -0.164361 -0.217276
  H 5.019320 -2.420709 -3.606145
  H 5.025088 -0.797528 -4.232628
  H 2.670188 -0.473212 -3.462361
  H 2.665725 -2.141855 -2.836384
  H 3.118332 -1.346699 -5.749551
  H 1.642286 -2.033983 -5.087115
  H 3.114768 -2.993247 -5.129207
  H 6.981020 -0.647505 -1.429317
 32
 70.797757
  C 1.174715 -0.011296 0.289851
  C 2.613148 0.107276 0.428997
  C 3.312723 0.648699 1.624715
  C 2.399419 1.133216 2.757700
  C 3.220345 1.699294 3.917705
  C 3.239217 -0.389710 -0.705415
  C 4.591634 -0.517459 -0.993696
  C 5.210862 -0.962957 -2.146384
  C 4.612446 -1.418161 -3.430000
  C 3.092870 -1.446650 -3.592996
  C 2.725732 -1.924320 -4.990036
  O 6.538498 -1.009835 -2.200525
  H 0.615483 -0.302168 1.156920
  H 1.363186 -0.797970 -0.771675
  H 0.717714 0.871835 -0.146854
  H 3.951062 1.478025 1.312901
  H 3.986990 -0.116083 2.010107
  H 1.789640 0.301083 3.129349
  H 1.722076 1.910788 2.383592
  H 3.887509 0.942949 4.327083
  H 2.566185 2.037625 4.716723
  H 3.820701 2.547443 3.593080
  H 2.082331 -0.761613 -1.266992
  H 5.259965 -0.252950 -0.185058
  H 5.016461 -2.412581 -3.625502
  H 5.045597 -0.786342 -4.206997
  H 2.684439 -0.447155 -3.448010
  H 2.656119 -2.132587 -2.867264
  H 3.135002 -1.261255 -5.748560
  H 1.646339 -1.948305 -5.110438
  H 3.107987 -2.926059 -5.171980
  H 6.983822 -0.718389 -1.393255
 32
 79.365058
  C 1.160560 -0.044154 0.341522
  C 2.593669 0.077232 0.437311
  C 3.304892 0.651944 1.613723
  C 2.405016 1.146728 2.747361
  C 3.238717 1.750474 3.881813
  C 3.230867 -0.420676 -0.679995
  C 4.579661 -0.556905 -0.973243
  C 5.203822 -0.986734 -2.127086
  C 4.615662 -1.412982 -3.425929
  C 3.102654 -1.425324 -3.601710
  C 2.741550 -1.870151 -5.016373
  O 6.531997 -1.043438 -2.172055
  H 0.625612 -0.343973 1.225763
  H 1.333539 -0.863845 -0.791636
  H 0.673725 0.816745 -0.111617
  H 3.926281 1.484610 1.273720
  H 3.995914 -0.098559 2.006265
  H 1.815063 0.316410 3.146626
  H 1.712044 1.904482 2.368604
  H 3.925316 1.010709 4.296902
  H 2.591161 2.098233 4.687091
  H 3.822730 2.601481 3.527484
  H 2.012024 -0.824577 -1.270642
  H 5.246956 -0.316947 -0.149513
  H 5.014483 -2.409210 -3.638122
  H 5.061915 -0.765674 -4.187385
  H 2.701191 -0.424639 -3.436601
  H 2.655326 -2.124637 -2.894320
  H 3.162266 -1.193228 -5.757520
  H 1.661885 -1.882990 -5.146079
  H 3.117838 -2.871308 -5.218155
  H 6.972657 -0.768537 -1.354730
 32
 86.977141
  C 1.132136 -0.090668 0.415149
  C 2.572147 0.037582 0.453332
  C 3.299538 0.659296 1.598823
  C 2.416858 1.168995 2.733739
  C 3.263516 1.821527 3.825289
  C 3.222699 -0.466290 -0.647210
  C 4.566021 -0.613728 -0.944051
  C 5.197579 -1.019903 -2.101521
  C 4.623281 -1.402424 -3.420793
  C 3.114433 -1.393862 -3.614999
  C 2.764790 -1.790706 -5.050245
  O 6.523734 -1.090995 -2.133281
  H 0.629533 -0.398642 1.321681
  H 1.275563 -0.967062 -0.816758
  H 0.608704 0.736626 -0.054419
  H 3.896194 1.494174 1.219371
  H 4.012697 -0.069514 1.998587
  H 1.855768 0.342472 3.171840
  H 1.702104 1.898806 2.349989
  H 3.974434 1.107538 4.244939
  H 2.628155 2.181036 4.635597
  H 3.821392 2.671714 3.431212
  H 1.923701 -0.922733 -1.287145
  H 5.228847 -0.415017 -0.101592
  H 5.015338 -2.397765 -3.657449
  H 5.086551 -0.735542 -4.157571
  H 2.720748 -0.394735 -3.421306
  H 2.652756 -2.112514 -2.935745
  H 3.200448 -1.094373 -5.765399
  H 1.685337 -1.789491 -5.192803
  H 3.135136 -2.789893 -5.279615
  H 6.958678 -0.842154 -1.300854
 32
 93.735015
  C 1.115413 -0.147659 0.488469
  C 2.551160 -0.016151 0.466301
  C 3.294417 0.664721 1.580482
  C 2.424981 1.200022 2.713686
  C 3.280797 1.909464 3.749073
  C 3.223913 -0.525901 -0.607280
  C 4.561093 -0.684373 -0.913565
  C 5.199279 -1.063174 -2.075051
  C 4.633971 -1.389757 -3.415656
  C 3.124072 -1.349019 -3.621818
  C 2.779886 -1.678882 -5.071497
  O 6.524079 -1.154305 -2.095780
  H 0.649291 -0.441703 1.417363
  H 1.214776 -1.118480 -0.843424
  H 0.557365 0.629107 -0.010383
  H 3.861093 1.496517 1.154073
  H 4.026694 -0.034918 1.991648
  H 1.894034 0.381763 3.199482
  H 1.687044 1.899238 2.319667
  H 4.012578 1.231710 4.175546
  H 2.662845 2.286180 4.554740
  H 3.806592 2.747940 3.308640
  H 1.840075 -1.068946 -1.311520
  H 5.215764 -0.528640 -0.057723
  H 5.012481 -2.380078 -3.685333
  H 5.113728 -0.703359 -4.120492
  H 2.744359 -0.354256 -3.388606
  H 2.646649 -2.088652 -2.977553
  H 3.231056 -0.960624 -5.752285
  H 1.702545 -1.655239 -5.221184
  H 3.137068 -2.672599 -5.339642
  H 6.953866 -0.940825 -1.249235
 32
 98.349267
  C 1.096682 -0.192994 0.548296
  C 2.521104 -0.066023 0.467666
  C 3.279955 0.668398 1.551179
  C 2.429121 1.232697 2.683156
  C 3.308321 1.993015 3.666306
  C 3.222058 -0.578418 -0.572712
  C 4.552137 -0.744340 -0.888964
  C 5.198749 -1.097374 -2.051094
  C 4.643005 -1.370839 -3.408250
  C 3.138179 -1.299998 -3.618477
  C 2.795968 -1.565295 -5.079386
  O 6.523563 -1.207382 -2.061223
  H 0.666042 -0.460341 1.499118
  H 1.142156 -1.286947 -0.881025
  H 0.500004 0.530184 0.009920
  H 3.823192 1.490518 1.080588
  H 4.030983 -0.005457 1.971187
  H 1.926113 0.426076 3.215845
  H 1.673506 1.908906 2.282150
  H 4.059883 1.341694 4.096244
  H 2.709392 2.393106 4.474334
  H 3.810603 2.820200 3.178456
  H 1.751455 -1.233967 -1.351830
  H 5.199314 -0.625663 -0.018635
  H 5.009374 -2.358124 -3.710306
  H 5.137723 -0.663642 -4.084757
  H 2.771340 -0.311029 -3.345148
  H 2.649743 -2.057949 -3.008151
  H 3.258935 -0.827117 -5.727409
  H 1.722622 -1.521167 -5.231483
  H 3.139918 -2.548236 -5.385157
  H 6.947527 -1.027350 -1.204343
