 26
 0.000000
  C 1.042723 0.115267 0.301589
  C 2.517755 0.148725 0.369616
  C 3.251703 0.616748 1.567741
  C 2.424098 1.079892 2.763602
  C 3.333989 1.526162 3.904441
  C 3.191453 -0.291005 -0.760073
  C 4.568433 -0.371382 -0.943887
  C 5.195552 -0.849914 -2.088671
  C 4.519416 -1.355496 -3.301794
  H 3.440779 -1.335755 -3.259745
  O 6.505750 -0.887930 -2.172589
  H 0.562842 0.462367 1.208673
  H 0.703096 -0.901666 0.092474
  H 0.696633 0.727776 -0.532268
  H 3.910400 1.439330 1.265731
  H 3.914558 -0.190550 1.900094
  H 1.788000 0.267955 3.120465
  H 1.783655 1.916585 2.478930
  H 3.971727 0.709867 4.236510
  H 2.741058 1.855259 4.754323
  H 3.967425 2.355178 3.596348
  H 2.564631 -0.614999 -1.578216
  H 5.206559 -0.036703 -0.136630
  H 4.859684 -2.375277 -3.488155
  H 4.863312 -0.772874 -4.157939
  H 6.973315 -0.558813 -1.383161
 26
 -0.336152
  C 1.024634 0.116623 0.325976
  C 2.497567 0.166885 0.346798
  C 3.244354 0.617542 1.546222
  C 2.427813 1.079474 2.751615
  C 3.350607 1.500204 3.892622
  C 3.163269 -0.275082 -0.793617
  C 4.543545 -0.364090 -0.948265
  C 5.199536 -0.838518 -2.082901
  C 4.546306 -1.322723 -3.316415
  H 3.469178 -1.251754 -3.286048
  O 6.509234 -0.891870 -2.129200
  H 0.566590 0.692946 1.120366
  H 0.712415 -0.925807 0.442756
  H 0.636004 0.440550 -0.640907
  H 3.916237 1.432035 1.250922
  H 3.897505 -0.202005 1.871678
  H 1.782600 0.273592 3.101120
  H 1.800429 1.930170 2.480523
  H 3.978025 0.671992 4.211841
  H 2.768114 1.828478 4.749525
  H 3.993732 2.322591 3.590013
  H 2.540014 -0.587870 -1.617483
  H 5.169266 -0.042786 -0.125726
  H 4.839648 -2.357462 -3.490282
  H 4.928105 -0.756655 -4.164954
  H 6.963940 -0.577946 -1.325711
 26
 0.577670
  C 1.027991 0.164140 0.327333
  C 2.495682 0.218291 0.324920
  C 3.244544 0.624416 1.537362
  C 2.425452 1.044038 2.754966
  C 3.342564 1.491449 3.886715
  C 3.157409 -0.226700 -0.818465
  C 4.538241 -0.367375 -0.951664
  C 5.194499 -0.860053 -2.076798
  C 4.544960 -1.309511 -3.328372
  H 3.468289 -1.219179 -3.309904
  O 6.501929 -0.955315 -2.104109
  H 0.562043 0.843605 1.030598
  H 0.832826 -0.865384 0.685176
  H 0.600442 0.226588 -0.669824
  H 3.903625 1.457875 1.262499
  H 3.903407 -0.196547 1.837044
  H 1.818093 0.209996 3.101813
  H 1.759053 1.871519 2.502884
  H 4.022677 0.695236 4.175325
  H 2.757379 1.765765 4.763116
  H 3.931238 2.356705 3.591695
  H 2.538817 -0.475511 -1.675157
  H 5.158143 -0.083869 -0.116734
  H 4.813878 -2.351971 -3.513232
  H 4.952411 -0.740523 -4.162589
  H 6.956029 -0.638948 -1.298697
 26
 11.053820
  C 1.020214 0.165974 0.333635
  C 2.477520 0.129936 0.352065
  C 3.245460 0.588485 1.550416
  C 2.429743 1.047455 2.755141
  C 3.350429 1.579501 3.857000
  C 3.141127 -0.227758 -0.820783
  C 4.517379 -0.424146 -0.933442
  C 5.178085 -0.846540 -2.077929
  C 4.540686 -1.172651 -3.372648
  H 3.480577 -0.960664 -3.389778
  O 6.469190 -1.108153 -2.055402
  H 0.492715 0.687329 1.112641
  H 1.104858 -0.924220 0.663065
  H 0.553780 0.134807 -0.645004
  H 3.889607 1.409275 1.237958
  H 3.901625 -0.221615 1.875330
  H 1.846976 0.213457 3.160065
  H 1.734340 1.844878 2.465783
  H 4.036047 0.809043 4.196018
  H 2.766990 1.911230 4.712722
  H 3.931975 2.425242 3.504163
  H 2.537670 -0.445799 -1.687936
  H 5.134122 -0.227173 -0.065671
  H 4.698953 -2.228943 -3.580916
  H 5.041857 -0.624808 -4.173054
  H 6.921569 -0.849939 -1.232204
 26
 27.133790
  C 0.981202 0.213075 0.352189
  C 2.418072 0.107831 0.351792
  C 3.218638 0.580960 1.527286
  C 2.426392 1.131342 2.716757
  C 3.380540 1.514294 3.848000
  C 3.102536 -0.299777 -0.805747
  C 4.478165 -0.454095 -0.919774
  C 5.157297 -0.856068 -2.063111
  C 4.548910 -1.189542 -3.377409
  H 3.476832 -1.105742 -3.377795
  O 6.480359 -0.934234 -2.073415
  H 0.447519 0.701933 1.138398
  H 1.360238 -0.882162 0.749613
  H 0.458038 0.043655 -0.584135
  H 3.886638 1.363011 1.162596
  H 3.848705 -0.231615 1.894500
  H 1.732085 0.396375 3.081046
  H 1.870961 2.021118 2.420391
  H 3.938091 0.641029 4.205259
  H 2.832339 1.923909 4.684433
  H 4.093860 2.264801 3.518546
  H 2.517942 -0.585285 -1.662270
  H 5.095730 -0.188408 -0.058349
  H 4.830128 -2.203605 -3.652416
  H 4.970589 -0.531506 -4.149238
  H 6.894328 -0.745357 -1.208292
 26
 40.895424
  C 0.979521 0.370898 0.298579
  C 2.385584 0.077329 0.373392
  C 3.214345 0.559330 1.555992
  C 2.420645 1.070690 2.756082
  C 3.367482 1.519238 3.863964
  C 3.092985 -0.287736 -0.834955
  C 4.461138 -0.450730 -0.937071
  C 5.142390 -0.846024 -2.081710
  C 4.524811 -1.254023 -3.367919
  H 3.443442 -1.216457 -3.348492
  O 6.464760 -0.892906 -2.104941
  H 0.444917 0.796961 1.129752
  H 1.791206 -0.900955 0.651057
  H 0.437969 0.171780 -0.608085
  H 3.857451 1.366868 1.203174
  H 3.860426 -0.251569 1.897558
  H 1.776002 0.286655 3.148567
  H 1.802103 1.920042 2.465651
  H 3.983931 0.690227 4.207978
  H 2.804600 1.895268 4.716738
  H 4.023732 2.314861 3.516624
  H 2.482213 -0.465238 -1.704945
  H 5.066970 -0.254004 -0.065124
  H 4.849273 -2.263671 -3.612281
  H 4.898085 -0.609170 -4.164545
  H 6.883589 -0.633391 -1.264657
 26
 42.200034
  C 0.973013 0.355684 0.320547
  C 2.367381 0.031540 0.411181
  C 3.205004 0.532800 1.585740
  C 2.410056 1.111543 2.755661
  C 3.351868 1.562740 3.867763
  C 3.080658 -0.314550 -0.827316
  C 4.440407 -0.473705 -0.931552
  C 5.121715 -0.849493 -2.087555
  C 4.500174 -1.185532 -3.386277
  H 3.424938 -1.096786 -3.379878
  O 6.435551 -0.932975 -2.100250
  H 0.442728 0.822167 1.124771
  H 2.146606 -1.076352 0.525623
  H 0.418284 0.095845 -0.563441
  H 3.875297 1.311179 1.215311
  H 3.819908 -0.282719 1.966560
  H 1.726620 0.360833 3.158309
  H 1.824053 1.970353 2.425265
  H 3.938234 0.727645 4.245153
  H 2.787766 1.981866 4.698283
  H 4.036252 2.326011 3.507396
  H 2.453383 -0.469404 -1.694018
  H 5.047019 -0.279692 -0.057325
  H 4.781599 -2.204623 -3.656490
  H 4.916279 -0.541361 -4.159685
  H 6.861892 -0.720931 -1.250268
 26
 44.539931
  C 0.978740 0.340165 0.346425
  C 2.349623 0.059881 0.418673
  C 3.191585 0.528603 1.597644
  C 2.407313 1.131740 2.761788
  C 3.356747 1.570887 3.872554
  C 3.059994 -0.348076 -0.815341
  C 4.436840 -0.494077 -0.926526
  C 5.110656 -0.848113 -2.084056
  C 4.486786 -1.186624 -3.385533
  H 3.407878 -1.117095 -3.374919
  O 6.429357 -0.908497 -2.112194
  H 0.452782 0.826722 1.142556
  H 2.395735 -1.119093 0.293242
  H 0.410296 0.073145 -0.526907
  H 3.892450 1.284500 1.235921
  H 3.777056 -0.306186 1.987274
  H 1.709119 0.397243 3.165944
  H 1.839997 2.000736 2.424676
  H 3.918903 0.724980 4.261524
  H 2.800049 2.011528 4.695969
  H 4.062457 2.314085 3.507915
  H 2.440228 -0.471232 -1.690126
  H 5.042691 -0.299218 -0.052382
  H 4.783366 -2.196971 -3.666002
  H 4.887223 -0.526791 -4.153760
  H 6.858740 -0.689945 -1.265686
 26
 40.908011
  C 0.980771 0.327628 0.367526
  C 2.323830 0.090959 0.432816
  C 3.172225 0.536688 1.599832
  C 2.405534 1.165215 2.763522
  C 3.367950 1.584674 3.870221
  C 3.023266 -0.409868 -0.784402
  C 4.424655 -0.538675 -0.902925
  C 5.099550 -0.847251 -2.064710
  C 4.478900 -1.153335 -3.376535
  H 3.399501 -1.092630 -3.364636
  O 6.421333 -0.899162 -2.094942
  H 0.447442 0.787573 1.176124
  H 2.526539 -1.185209 0.085875
  H 0.401223 0.055960 -0.497068
  H 3.892381 1.271675 1.231832
  H 3.737515 -0.310803 1.992707
  H 1.689485 0.450351 3.172526
  H 1.859524 2.045479 2.421901
  H 3.912425 0.726856 4.258865
  H 2.823688 2.038755 4.694545
  H 4.088595 2.311698 3.502454
  H 2.407187 -0.499695 -1.667762
  H 5.024203 -0.357375 -0.021924
  H 4.783162 -2.152520 -3.686389
  H 4.874624 -0.467947 -4.124781
  H 6.848947 -0.699789 -1.243645
 26
 30.772537
  C 0.980593 0.310548 0.373772
  C 2.305547 0.096891 0.451054
  C 3.165125 0.527692 1.599345
  C 2.424416 1.205466 2.752471
  C 3.403986 1.614636 3.847807
  C 2.983386 -0.514316 -0.750485
  C 4.407963 -0.603904 -0.875814
  C 5.092591 -0.835612 -2.049984
  C 4.478148 -1.081753 -3.375615
  H 3.397819 -1.039978 -3.361632
  O 6.412722 -0.864510 -2.077217
  H 0.432895 0.776715 1.171034
  H 2.606320 -1.375864 -0.089021
  H 0.405988 0.026799 -0.490650
  H 3.914488 1.225355 1.215246
  H 3.697986 -0.335293 2.006396
  H 1.685581 0.523681 3.176841
  H 1.906507 2.095592 2.392616
  H 3.922860 0.747216 4.250015
  H 2.877317 2.100302 4.665602
  H 4.145311 2.312263 3.464385
  H 2.378664 -0.535337 -1.648020
  H 4.997265 -0.454825 0.017901
  H 4.799744 -2.057556 -3.738342
  H 4.862964 -0.351759 -4.086753
  H 6.838777 -0.702641 -1.216447
 26
 22.002202
  C 0.976613 0.297498 0.380121
  C 2.296867 0.086976 0.458035
  C 3.164907 0.507148 1.595817
  C 2.450600 1.235836 2.733641
  C 3.446218 1.648631 3.813042
  C 2.937458 -0.623239 -0.709957
  C 4.381088 -0.666833 -0.835108
  C 5.078939 -0.818948 -2.016277
  C 4.475023 -0.992729 -3.356390
  H 3.394069 -0.965585 -3.346654
  O 6.396583 -0.829232 -2.032847
  H 0.426124 0.798296 1.155027
  H 2.603708 -1.594546 -0.276712
  H 0.401258 -0.014761 -0.474268
  H 3.946263 1.162746 1.199106
  H 3.660468 -0.371415 2.018377
  H 1.695013 0.586605 3.178848
  H 1.953987 2.128510 2.350227
  H 3.945677 0.779052 4.234660
  H 2.936272 2.167885 4.620839
  H 4.202083 2.317969 3.408032
  H 2.377676 -0.511690 -1.633634
  H 4.958672 -0.570836 0.073215
  H 4.811919 -1.940977 -3.774645
  H 4.855351 -0.219055 -4.022742
  H 6.819073 -0.718359 -1.161534
 26
 19.415070
  C 0.949339 0.238533 0.435636
  C 2.283811 0.102277 0.451719
  C 3.159817 0.520950 1.583024
  C 2.459316 1.225907 2.742971
  C 3.472358 1.659816 3.797758
  C 2.910884 -0.567442 -0.736697
  C 4.364768 -0.643078 -0.825282
  C 5.079798 -0.830040 -1.991147
  C 4.492211 -1.003267 -3.338498
  H 3.412706 -0.939176 -3.347362
  O 6.396274 -0.875005 -1.984433
  H 0.403492 0.680558 1.248356
  H 2.527125 -1.593406 -0.573663
  H 0.357328 -0.075292 -0.407017
  H 3.929572 1.188655 1.181993
  H 3.672578 -0.358953 1.983019
  H 1.733052 0.555847 3.205780
  H 1.928365 2.106393 2.377273
  H 3.999626 0.800715 4.206849
  H 2.972025 2.168709 4.618076
  H 4.204226 2.344376 3.374465
  H 2.436281 -0.250744 -1.666254
  H 4.925512 -0.581610 0.095956
  H 4.802578 -1.969993 -3.734752
  H 4.911389 -0.256745 -4.012517
  H 6.807476 -0.769039 -1.107033
 26
 19.343999
  C 0.950973 0.175230 0.470152
  C 2.293998 0.156918 0.436695
  C 3.163447 0.582546 1.570189
  C 2.448695 1.207292 2.766345
  C 3.454645 1.634202 3.831115
  C 2.927718 -0.417171 -0.790860
  C 4.381707 -0.549591 -0.850707
  C 5.088224 -0.859854 -1.994268
  C 4.487609 -1.115962 -3.322727
  H 3.410657 -1.016441 -3.331911
  O 6.401018 -0.964684 -1.981780
  H 0.406062 0.478430 1.345198
  H 2.484400 -1.430225 -0.812927
  H 0.348187 -0.085935 -0.382228
  H 3.887649 1.304726 1.177997
  H 3.733449 -0.279055 1.931335
  H 1.755336 0.488918 3.206472
  H 1.877926 2.080608 2.445420
  H 4.018283 0.779211 4.197830
  H 2.943462 2.086635 4.677229
  H 4.155715 2.364195 3.432248
  H 2.522351 0.050188 -1.693416
  H 4.943168 -0.421605 0.062594
  H 4.763874 -2.119940 -3.644537
  H 4.926879 -0.437782 -4.053575
  H 6.816476 -0.811907 -1.113661
 26
 18.447797
  C 0.945610 0.215109 0.458987
  C 2.287279 0.127088 0.447931
  C 3.160464 0.554519 1.579926
  C 2.451195 1.201755 2.768005
  C 3.459922 1.625371 3.831096
  C 2.923068 -0.453309 -0.777440
  C 4.381911 -0.547694 -0.844177
  C 5.087356 -0.847925 -1.991845
  C 4.480652 -1.132135 -3.311807
  H 3.400552 -1.078428 -3.306181
  O 6.402465 -0.911707 -1.991889
  H 0.398382 0.620272 1.288910
  H 2.500788 -1.468269 -0.871688
  H 0.353114 -0.115148 -0.377019
  H 3.900948 1.261208 1.191375
  H 3.708875 -0.319575 1.946357
  H 1.745264 0.497769 3.212729
  H 1.895133 2.080264 2.436343
  H 4.012702 0.766400 4.206056
  H 2.952318 2.091262 4.672493
  H 4.170413 2.343783 3.428038
  H 2.524897 0.057531 -1.662805
  H 4.948082 -0.394964 0.062413
  H 4.796040 -2.122900 -3.637717
  H 4.881370 -0.436412 -4.048800
  H 6.823109 -0.734917 -1.131071
