 24
 0.000000
  C 0.802706 0.050227 0.307764
  C 2.294216 0.057316 0.122392
  C 3.199258 -0.013247 1.344568
  C 2.537078 -0.088813 2.717909
  C 3.590273 -0.152650 3.819614
  C 2.900081 0.122111 -1.059438
  C 2.389099 0.203015 -2.473591
  C 0.893141 0.216384 -2.762111
  H 0.745760 0.278369 -3.838838
  H 3.985520 0.128868 -1.066412
  H 0.528279 -0.013596 1.355221
  H 0.354870 -0.802977 -0.195574
  H 0.360850 0.962279 -0.088490
  H 3.851258 0.865711 1.334336
  H 3.847500 -0.888281 1.235908
  H 1.907220 -0.978695 2.783881
  H 1.910754 0.790688 2.882845
  H 4.220998 -1.030806 3.697345
  H 3.115878 -0.206429 4.797329
  H 4.224582 0.731079 3.796008
  H 2.829598 -0.642157 -3.016801
  H 2.825985 1.107051 -2.915388
  H 0.407194 1.074185 -2.307881
  H 0.411250 -0.690360 -2.410039
 24
 -0.151020
  C 0.796676 0.108716 0.331778
  C 2.285630 0.110274 0.125945
  C 3.196452 0.017377 1.342507
  C 2.536739 -0.091350 2.714804
  C 3.590047 -0.235055 3.808333
  C 2.886741 0.195072 -1.056812
  C 2.395435 0.241220 -2.478451
  C 0.903833 0.154637 -2.776105
  H 0.761346 0.118036 -3.855173
  H 3.973541 0.216762 -1.047446
  H 0.539480 0.337857 1.359575
  H 0.373339 -0.864789 0.088854
  H 0.330417 0.856328 -0.301276
  H 3.854485 0.891951 1.347888
  H 3.840433 -0.858070 1.210794
  H 1.875982 -0.960222 2.742572
  H 1.942429 0.801840 2.919431
  H 4.190393 -1.128073 3.647315
  H 3.118532 -0.311061 4.785607
  H 4.254705 0.626329 3.814617
  H 2.891952 -0.587600 -2.997970
  H 2.787760 1.160491 -2.929768
  H 0.369436 1.023285 -2.403566
  H 0.469368 -0.743334 -2.347812
 24
 -0.307990
  C 0.807505 0.160998 0.356803
  C 2.290745 0.145935 0.126466
  C 3.204225 0.024674 1.340931
  C 2.536334 -0.091667 2.703210
  C 3.574784 -0.296113 3.797219
  C 2.882107 0.245321 -1.060389
  C 2.390619 0.288073 -2.480943
  C 0.912617 0.091530 -2.789538
  H 0.788483 -0.008489 -3.864218
  H 3.970405 0.280751 -1.056510
  H 0.571846 0.662730 1.286302
  H 0.408767 -0.850918 0.410755
  H 0.311281 0.696158 -0.443070
  H 3.878442 0.885303 1.360021
  H 3.830660 -0.860047 1.199461
  H 1.846424 -0.932873 2.705924
  H 1.972614 0.813217 2.924282
  H 4.145977 -1.205339 3.618889
  H 3.094339 -0.378397 4.770206
  H 4.266343 0.539605 3.826989
  H 2.947499 -0.497084 -3.009132
  H 2.718173 1.241062 -2.918247
  H 0.315594 0.942637 -2.470928
  H 0.532988 -0.809497 -2.319647
 24
 0.901648
  C 0.840446 0.349856 0.363766
  C 2.311938 0.204076 0.121688
  C 3.214597 -0.001235 1.326314
  C 2.523662 -0.155413 2.679970
  C 3.545578 -0.374777 3.788710
  C 2.888331 0.364753 -1.064555
  C 2.370821 0.342795 -2.481202
  C 0.932277 -0.081436 -2.765367
  H 0.814911 -0.229834 -3.837890
  H 3.971251 0.438992 -1.093463
  H 0.688690 1.072443 1.164408
  H 0.364972 -0.582792 0.657403
  H 0.360959 0.759711 -0.519541
  H 3.921453 0.831211 1.389535
  H 3.807902 -0.902139 1.144029
  H 1.841421 -1.005325 2.651576
  H 1.941914 0.737142 2.910634
  H 4.130608 -1.271283 3.598470
  H 3.048588 -0.487914 4.750877
  H 4.228655 0.471149 3.852354
  H 3.023698 -0.363664 -3.006035
  H 2.551202 1.322256 -2.937846
  H 0.208264 0.673172 -2.463227
  H 0.700656 -1.017140 -2.263598
 24
 5.530515
  C 0.845011 0.420327 0.350633
  C 2.320785 0.275630 0.126365
  C 3.218077 -0.036867 1.305547
  C 2.523617 -0.168182 2.662262
  C 3.536181 -0.410683 3.773912
  C 2.867942 0.536070 -1.059632
  C 2.369235 0.334808 -2.471549
  C 0.944538 -0.156030 -2.720813
  H 0.836202 -0.393243 -3.777031
  H 3.941432 0.706634 -1.115868
  H 0.699983 1.176458 1.129082
  H 0.341466 -0.488425 0.658853
  H 0.423317 0.858033 -0.547544
  H 3.994887 0.729408 1.383807
  H 3.731225 -0.978219 1.086300
  H 1.815253 -1.000074 2.631373
  H 1.965310 0.743654 2.888857
  H 4.145873 -1.279765 3.549331
  H 3.032180 -0.582746 4.719316
  H 4.193010 0.446588 3.888826
  H 3.048314 -0.420936 -2.884840
  H 2.535375 1.246628 -3.051411
  H 0.192295 0.591767 -2.477242
  H 0.742878 -1.053063 -2.143141
 24
 14.255570
  C 0.876714 0.647978 0.340792
  C 2.341004 0.374852 0.128718
  C 3.232669 0.011573 1.294348
  C 2.504143 -0.254299 2.605327
  C 3.487765 -0.527906 3.737510
  C 2.848970 0.673706 -1.069982
  C 2.342370 0.312112 -2.452060
  C 0.969115 -0.331145 -2.607220
  H 0.848608 -0.653664 -3.639524
  H 3.909060 0.895181 -1.185886
  H 0.810196 1.536259 0.983694
  H 0.289140 -0.139393 0.786809
  H 0.544950 1.057277 -0.614325
  H 3.968862 0.804439 1.458311
  H 3.795870 -0.887005 1.010416
  H 1.837528 -1.111908 2.490449
  H 1.893687 0.606903 2.864990
  H 4.176010 -1.327937 3.462558
  H 2.960230 -0.819890 4.641548
  H 4.075684 0.364476 3.958310
  H 3.080762 -0.399101 -2.828616
  H 2.385790 1.192154 -3.103952
  H 0.155763 0.353290 -2.395047
  H 0.879204 -1.197158 -1.956509
 24
 30.598582
  C 0.847951 0.711460 0.302761
  C 2.321810 0.437143 0.153642
  C 3.215721 -0.039604 1.258593
  C 2.513762 -0.201870 2.602475
  C 3.486318 -0.615708 3.694703
  C 2.754167 0.838731 -1.054012
  C 2.321247 0.356943 -2.420354
  C 1.037799 -0.461162 -2.528613
  H 0.970359 -0.878112 -3.531911
  H 3.787001 1.198687 -1.147435
  H 0.703379 1.620342 0.893735
  H 0.258732 -0.085884 0.716626
  H 0.744184 1.176548 -0.694055
  H 4.045057 0.670835 1.374178
  H 3.667591 -0.987970 0.958277
  H 1.731465 -0.956569 2.513805
  H 2.037487 0.738477 2.878176
  H 3.977833 -1.550235 3.435161
  H 2.970143 -0.745909 4.640569
  H 4.254851 0.142538 3.825343
  H 3.146404 -0.290039 -2.737481
  H 2.295610 1.188801 -3.136396
  H 0.146507 0.122948 -2.331689
  H 1.068522 -1.297355 -1.834004
 24
 53.820681
  C 0.846138 0.833515 0.293519
  C 2.308484 0.541279 0.171066
  C 3.210132 0.003811 1.234087
  C 2.517943 -0.199216 2.580692
  C 3.487598 -0.713762 3.637387
  C 2.685898 0.972944 -1.061544
  C 2.357513 0.277421 -2.372631
  C 1.086455 -0.564631 -2.438637
  H 0.997537 -1.019523 -3.420624
  H 3.706346 1.358303 -1.176329
  H 0.601684 1.826866 0.701737
  H 0.203637 0.071571 0.717531
  H 0.877550 1.304242 -0.752204
  H 4.066168 0.679849 1.363578
  H 3.621195 -0.948891 0.883202
  H 1.707630 -0.920127 2.462963
  H 2.083122 0.745725 2.909630
  H 3.920697 -1.662274 3.326524
  H 2.968597 -0.881735 4.578759
  H 4.289196 -0.000289 3.809254
  H 3.216665 -0.358825 -2.588369
  H 2.289148 1.032601 -3.164124
  H 0.201010 0.041039 -2.267300
  H 1.099141 -1.334658 -1.671776
 24
 75.467699
  C 0.866459 0.918440 0.308865
  C 2.245049 0.590000 0.202229
  C 3.158390 -0.001733 1.221581
  C 2.492442 -0.264076 2.569743
  C 3.487531 -0.793372 3.594990
  C 2.615118 1.080705 -1.078792
  C 2.335702 0.289196 -2.359300
  C 1.125536 -0.633633 -2.331513
  H 1.068333 -1.189030 -3.265430
  H 3.609434 1.537424 -1.179729
  H 0.606927 1.948718 0.507465
  H 0.173029 0.249359 0.824820
  H 1.207201 1.437313 -0.993426
  H 3.998491 0.690898 1.353347
  H 3.588830 -0.935454 0.839789
  H 1.687673 -0.989700 2.439523
  H 2.047893 0.664152 2.935319
  H 3.932643 -1.725466 3.250273
  H 2.994859 -0.980742 4.547020
  H 4.287100 -0.073312 3.758868
  H 3.226693 -0.323066 -2.549665
  H 2.245178 0.984972 -3.198517
  H 0.200576 -0.075051 -2.209269
  H 1.206440 -1.342194 -1.510759
 24
 53.948390
  C 0.838936 0.952757 0.400536
  C 2.151844 0.631599 0.231503
  C 3.098482 0.007902 1.198344
  C 2.481611 -0.315959 2.552288
  C 3.519929 -0.850007 3.527927
  C 2.539815 1.192704 -1.099929
  C 2.364531 0.272238 -2.336735
  C 1.178665 -0.675161 -2.270855
  H 1.188101 -1.341764 -3.130662
  H 3.498734 1.694360 -1.167146
  H 0.539898 1.986841 0.376947
  H 0.097840 0.409118 0.993860
  H 1.436323 1.548515 -1.163542
  H 3.929431 0.708446 1.319801
  H 3.528354 -0.909828 0.779926
  H 1.699068 -1.062789 2.417963
  H 2.015128 0.582198 2.962061
  H 3.998029 -1.743607 3.127929
  H 3.056014 -1.110286 4.476159
  H 4.288566 -0.103544 3.714038
  H 3.274068 -0.334875 -2.441738
  H 2.299688 0.892331 -3.228502
  H 0.238669 -0.128444 -2.280097
  H 1.215954 -1.270399 -1.361804
 24
 30.665367
  C 0.745685 0.945505 0.448305
  C 2.043963 0.675625 0.217059
  C 3.035310 0.043247 1.146163
  C 2.475534 -0.321525 2.516845
  C 3.561266 -0.873738 3.433245
  C 2.494959 1.244583 -1.107239
  C 2.447673 0.198848 -2.241479
  C 1.197229 -0.661797 -2.241424
  H 1.225472 -1.356450 -3.076773
  H 3.460371 1.727434 -1.093318
  H 0.365531 1.951255 0.423197
  H 0.148543 0.282518 1.080540
  H 1.539421 1.752309 -1.286848
  H 3.840658 0.776742 1.255000
  H 3.492835 -0.854192 0.698455
  H 1.686752 -1.069132 2.398960
  H 2.028451 0.567391 2.968893
  H 4.015480 -1.761065 2.996795
  H 3.145293 -1.143482 4.400380
  H 4.342179 -0.132568 3.591646
  H 3.323248 -0.458084 -2.167098
  H 2.524332 0.734022 -3.185945
  H 0.302831 -0.044201 -2.329443
  H 1.123267 -1.236292 -1.325543
 24
 12.253958
  C 0.735523 1.048732 0.516405
  C 1.996288 0.731696 0.217967
  C 2.993018 0.053640 1.108597
  C 2.460128 -0.353953 2.478708
  C 3.564366 -0.932882 3.355005
  C 2.478408 1.272866 -1.107064
  C 2.482051 0.166378 -2.185868
  C 1.243776 -0.717066 -2.171059
  H 1.328236 -1.486564 -2.935432
  H 3.460943 1.731052 -1.079782
  H 0.302860 2.000767 0.263927
  H 0.153520 0.529628 1.268242
  H 1.611325 1.880579 -1.376077
  H 3.808670 0.772917 1.230139
  H 3.423764 -0.828910 0.619023
  H 1.668611 -1.095412 2.354981
  H 2.024322 0.519755 2.967889
  H 4.006626 -1.809324 2.885514
  H 3.169961 -1.225794 4.325270
  H 4.351109 -0.197875 3.513193
  H 3.366475 -0.464925 -2.055242
  H 2.575987 0.648830 -3.160994
  H 0.348904 -0.131095 -2.370298
  H 1.126331 -1.203479 -1.206756
 24
 -0.372139
  C 0.701635 1.046941 0.587151
  C 1.948575 0.765234 0.236288
  C 2.967165 0.092412 1.111594
  C 2.470455 -0.343101 2.486579
  C 3.597728 -0.947483 3.315370
  C 2.452681 1.257660 -1.095949
  C 2.516007 0.116977 -2.128877
  C 1.225694 -0.685614 -2.217052
  H 1.328719 -1.482260 -2.950752
  H 3.436173 1.718390 -1.024064
  H 0.127056 1.829794 0.122595
  H 0.222919 0.588278 1.437344
  H 1.681738 1.942535 -1.446977
  H 3.781328 0.813915 1.237318
  H 3.393782 -0.775492 0.597422
  H 1.673046 -1.079745 2.370437
  H 2.057335 0.520657 3.011180
  H 4.020155 -1.815497 2.813002
  H 3.230887 -1.261146 4.290010
  H 4.392889 -0.220346 3.467321
  H 3.344469 -0.553531 -1.886556
  H 2.731423 0.558799 -3.104849
  H 0.397679 -0.046636 -2.516040
  H 0.981662 -1.131179 -1.256207
 24
 -4.887767
  C 0.681524 1.149855 0.687727
  C 1.901754 0.852888 0.271803
  C 2.921602 0.106054 1.088527
  C 2.477266 -0.309088 2.488499
  C 3.608024 -0.999485 3.242469
  C 2.359242 1.271507 -1.102948
  C 2.568859 0.088738 -2.053931
  C 1.294388 -0.724180 -2.241694
  H 1.458299 -1.535676 -2.947701
  H 3.290682 1.836997 -1.026864
  H 0.000935 1.700680 0.058326
  H 0.302306 0.853564 1.649255
  H 1.589226 1.925562 -1.516332
  H 3.811644 0.737192 1.175262
  H 3.226220 -0.790014 0.537998
  H 1.626019 -0.988236 2.415294
  H 2.159828 0.574135 3.046398
  H 3.982443 -1.850579 2.677541
  H 3.261591 -1.357696 4.208846
  H 4.434056 -0.309727 3.408690
  H 3.363373 -0.556396 -1.673617
  H 2.897501 0.475058 -3.021890
  H 0.494393 -0.093175 -2.620915
  H 0.970026 -1.148417 -1.294454
 24
 -5.141854
  C 0.658258 1.079241 0.679918
  C 1.891657 0.822625 0.275427
  C 2.923277 0.102058 1.101311
  C 2.493279 -0.285706 2.513560
  C 3.625146 -0.980487 3.261386
  C 2.365294 1.257956 -1.085852
  C 2.564362 0.087790 -2.058103
  C 1.272514 -0.686084 -2.292286
  H 1.436359 -1.500584 -2.995223
  H 3.313900 1.792658 -0.983115
  H -0.038455 1.604182 0.047676
  H 0.281766 0.782934 1.643364
  H 1.634507 1.946220 -1.516812
  H 3.812574 0.738727 1.164565
  H 3.223634 -0.804485 0.567504
  H 1.631653 -0.955859 2.462903
  H 2.195402 0.609158 3.061974
  H 3.940868 -1.877076 2.731475
  H 3.304247 -1.268825 4.259289
  H 4.484575 -0.319148 3.356202
  H 3.330821 -0.588145 -1.672546
  H 2.927035 0.485159 -3.010416
  H 0.505320 -0.030152 -2.698454
  H 0.903210 -1.102595 -1.357459
