 23
 0.000000
  C 1.037942 0.112613 0.294860
  C 2.512430 0.146699 0.365366
  C 3.242149 0.614987 1.566700
  C 2.402351 1.073041 2.751770
  H 3.053310 1.388497 3.559830
  C 3.189288 -0.291999 -0.763086
  C 4.566624 -0.371621 -0.943791
  C 5.196758 -0.849415 -2.087421
  C 4.523666 -1.354603 -3.301920
  H 3.444325 -1.334595 -3.260656
  O 6.507569 -0.886895 -2.168405
  H 0.556611 0.458861 1.201459
  H 0.699298 -0.904289 0.084285
  H 0.692848 0.725440 -0.539238
  H 3.900435 1.438037 1.265880
  H 3.904467 -0.192370 1.899244
  H 1.771769 0.268682 3.121782
  H 1.767607 1.913483 2.482991
  H 2.564425 -0.615978 -1.583093
  H 5.203065 -0.037046 -0.135050
  H 4.864109 -2.374309 -3.488082
  H 4.868598 -0.771514 -4.157171
  H 6.973619 -0.557996 -1.377854
 23
 -0.307770
  C 1.021343 0.082617 0.330814
  C 2.493560 0.151403 0.344922
  C 3.239762 0.611695 1.543204
  C 2.413459 1.076137 2.734843
  H 3.080038 1.384323 3.536664
  C 3.158025 -0.281625 -0.796317
  C 4.539097 -0.377430 -0.946327
  C 5.196495 -0.842314 -2.083927
  C 4.545089 -1.291202 -3.332211
  H 3.475374 -1.134450 -3.337084
  O 6.505406 -0.920449 -2.119768
  H 0.560203 0.631576 1.140697
  H 0.729451 -0.967684 0.421417
  H 0.622980 0.424197 -0.622271
  H 3.909533 1.424344 1.240671
  H 3.890775 -0.205203 1.872801
  H 1.781696 0.278314 3.115824
  H 1.790346 1.929281 2.479167
  H 2.535848 -0.586565 -1.624912
  H 5.162548 -0.077854 -0.115240
  H 4.757969 -2.350430 -3.482000
  H 4.998869 -0.771114 -4.176064
  H 6.958059 -0.634201 -1.305075
 23
 0.312614
  C 1.026343 0.106604 0.347079
  C 2.493814 0.187740 0.324971
  C 3.243942 0.628806 1.525593
  C 2.408932 1.060094 2.722815
  H 3.069415 1.340035 3.540559
  C 3.152167 -0.247636 -0.820869
  C 4.534381 -0.385181 -0.952462
  C 5.194481 -0.837617 -2.092373
  C 4.548797 -1.250764 -3.350253
  H 3.490939 -1.030690 -3.379142
  O 6.503046 -0.948138 -2.116564
  H 0.546351 0.782806 1.039803
  H 0.874272 -0.913180 0.725616
  H 0.583084 0.137245 -0.640691
  H 3.903700 1.454197 1.233644
  H 3.891504 -0.192190 1.842411
  H 1.769791 0.254880 3.071907
  H 1.791255 1.925516 2.488579
  H 2.537161 -0.534955 -1.659465
  H 5.151443 -0.137575 -0.104538
  H 4.699079 -2.322985 -3.487350
  H 5.050593 -0.765979 -4.183632
  H 6.950427 -0.713317 -1.283835
 23
 11.414005
  C 1.004931 0.151106 0.340877
  C 2.459702 0.090368 0.349997
  C 3.234275 0.666678 1.487841
  C 2.423253 1.083619 2.707027
  H 3.094362 1.480403 3.464750
  C 3.113726 -0.339102 -0.804744
  C 4.496229 -0.483096 -0.913686
  C 5.172995 -0.892804 -2.054513
  C 4.558415 -1.157114 -3.375429
  H 3.519282 -0.860197 -3.426118
  O 6.477426 -1.082606 -2.039225
  H 0.485377 0.731019 1.086617
  H 1.118946 -0.906584 0.751932
  H 0.519606 0.036827 -0.618048
  H 3.761133 1.543557 1.103620
  H 3.993016 -0.048785 1.807822
  H 1.895054 0.239479 3.142480
  H 1.709166 1.864404 2.463629
  H 2.506811 -0.522928 -1.678745
  H 5.100505 -0.275844 -0.042462
  H 4.642537 -2.220590 -3.600608
  H 5.128273 -0.635012 -4.143619
  H 6.898368 -0.913721 -1.180914
 23
 30.767103
  C 1.004434 0.252870 0.322721
  C 2.428125 0.113201 0.345831
  C 3.223187 0.595342 1.527778
  C 2.400014 1.088381 2.713365
  H 3.071465 1.430859 3.496218
  C 3.115384 -0.235009 -0.842961
  C 4.492142 -0.427073 -0.944090
  C 5.159650 -0.871914 -2.067420
  C 4.540284 -1.228143 -3.367004
  H 3.486004 -0.993946 -3.409452
  O 6.476095 -1.023046 -2.063712
  H 0.450276 0.664710 1.143712
  H 1.534237 -0.852509 0.642046
  H 0.477212 0.080051 -0.601327
  H 3.855770 1.412865 1.177776
  H 3.881493 -0.206110 1.872797
  H 1.783020 0.296875 3.131957
  H 1.767793 1.927517 2.436094
  H 2.513587 -0.388689 -1.724103
  H 5.101500 -0.221611 -0.074764
  H 4.682053 -2.293272 -3.549672
  H 5.064315 -0.705745 -4.165487
  H 6.891603 -0.818027 -1.213481
 23
 40.978542
  C 0.978260 0.317125 0.306781
  C 2.394435 0.073389 0.367994
  C 3.214214 0.573962 1.546835
  C 2.399442 1.107911 2.719410
  H 3.076254 1.444435 3.500565
  C 3.096055 -0.279404 -0.844365
  C 4.462795 -0.454413 -0.939981
  C 5.144813 -0.870257 -2.074261
  C 4.534114 -1.210310 -3.382098
  H 3.478035 -0.982021 -3.427656
  O 6.463019 -1.005705 -2.066414
  H 0.431757 0.731197 1.131074
  H 1.844601 -0.933076 0.611024
  H 0.437991 0.103199 -0.599223
  H 3.861190 1.372904 1.181354
  H 3.854563 -0.231855 1.909068
  H 1.758833 0.340191 3.146175
  H 1.791829 1.959077 2.424431
  H 2.486217 -0.451937 -1.717426
  H 5.065670 -0.253355 -0.065373
  H 4.683708 -2.271928 -3.579082
  H 5.059685 -0.673995 -4.170688
  H 6.876394 -0.805053 -1.208584
 23
 41.459521
  C 0.979733 0.376745 0.292624
  C 2.368281 0.024624 0.399704
  C 3.202348 0.553154 1.568984
  C 2.392382 1.113887 2.731520
  H 3.071356 1.450017 3.511278
  C 3.091522 -0.320078 -0.837584
  C 4.447415 -0.477019 -0.938062
  C 5.127453 -0.865550 -2.087078
  C 4.506083 -1.198864 -3.387557
  H 3.444714 -0.993273 -3.418279
  O 6.437744 -0.964419 -2.093732
  H 0.449901 0.844076 1.097019
  H 2.149269 -1.076066 0.564057
  H 0.432584 0.138350 -0.600939
  H 3.852530 1.343061 1.189445
  H 3.835815 -0.248309 1.949760
  H 1.738431 0.359563 3.162142
  H 1.796584 1.969336 2.425562
  H 2.471100 -0.480856 -1.706013
  H 5.053515 -0.280034 -0.064760
  H 4.676584 -2.254448 -3.599989
  H 5.011581 -0.643822 -4.176368
  H 6.863804 -0.764340 -1.240117
 23
 44.333634
  C 0.979970 0.342261 0.335922
  C 2.356670 0.061283 0.411567
  C 3.196508 0.561368 1.581950
  C 2.395041 1.136081 2.744497
  H 3.078446 1.466432 3.522680
  C 3.067319 -0.340424 -0.824486
  C 4.440747 -0.480627 -0.939341
  C 5.111277 -0.857855 -2.092460
  C 4.483472 -1.198487 -3.390936
  H 3.418616 -1.012055 -3.413583
  O 6.427630 -0.940885 -2.117033
  H 0.449354 0.831515 1.127008
  H 2.383771 -1.110623 0.331449
  H 0.416200 0.065478 -0.536373
  H 3.866597 1.338271 1.208874
  H 3.811583 -0.253992 1.964545
  H 1.732359 0.390274 3.176597
  H 1.808417 1.996931 2.436035
  H 2.443036 -0.484706 -1.693326
  H 5.049101 -0.277043 -0.069038
  H 4.671651 -2.249699 -3.608904
  H 4.971523 -0.630022 -4.180921
  H 6.859231 -0.738095 -1.267041
 23
 41.459753
  C 0.988129 0.327237 0.359160
  C 2.333440 0.081313 0.424499
  C 3.186241 0.576207 1.571732
  C 2.409314 1.179231 2.737345
  H 3.107766 1.502455 3.505130
  C 3.031276 -0.416749 -0.790514
  C 4.431183 -0.538278 -0.916926
  C 5.099612 -0.856637 -2.079878
  C 4.471744 -1.152481 -3.390761
  H 3.405937 -0.970513 -3.405819
  O 6.420290 -0.929497 -2.112097
  H 0.463075 0.797822 1.166965
  H 2.548621 -1.198448 0.116716
  H 0.402258 0.034979 -0.493939
  H 3.866033 1.335011 1.177855
  H 3.792724 -0.244101 1.959631
  H 1.736019 0.451605 3.183476
  H 1.837760 2.049118 2.425466
  H 2.409774 -0.534325 -1.666668
  H 5.035168 -0.358295 -0.038706
  H 4.664478 -2.193886 -3.648081
  H 4.956202 -0.552622 -4.159369
  H 6.852612 -0.751195 -1.258349
 23
 30.225878
  C 0.994723 0.328869 0.368910
  C 2.307387 0.094838 0.449123
  C 3.181148 0.579097 1.574561
  C 2.435445 1.241563 2.730651
  H 3.149364 1.550836 3.490331
  C 2.980577 -0.536886 -0.741096
  C 4.407525 -0.613774 -0.879803
  C 5.095662 -0.852266 -2.076338
  C 4.473215 -1.083843 -3.403186
  H 3.405384 -0.916656 -3.409693
  O 6.417751 -0.899723 -2.110057
  H 0.458842 0.825828 1.158130
  H 2.651580 -1.408118 -0.065216
  H 0.406653 0.014527 -0.480038
  H 3.893603 1.297366 1.156957
  H 3.756557 -0.257933 1.980079
  H 1.732116 0.553583 3.193336
  H 1.900168 2.127549 2.399556
  H 2.362751 -0.590963 -1.627146
  H 5.002184 -0.468047 0.014095
  H 4.681062 -2.106521 -3.718102
  H 4.950175 -0.436576 -4.137610
  H 6.849977 -0.764616 -1.248312
 23
 21.190342
  C 0.995717 0.303828 0.386854
  C 2.317741 0.100234 0.447915
  C 3.199395 0.563799 1.559571
  C 2.484401 1.301002 2.686398
  H 3.209221 1.610711 3.435275
  C 2.945405 -0.634987 -0.708762
  C 4.390205 -0.666896 -0.850262
  C 5.075928 -0.837959 -2.035770
  C 4.458214 -1.018839 -3.368603
  H 3.384476 -0.890292 -3.364783
  O 6.393166 -0.859715 -2.064043
  H 0.453194 0.827310 1.152135
  H 2.636520 -1.617791 -0.287180
  H 0.409225 -0.041327 -0.447323
  H 3.959431 1.223129 1.129732
  H 3.718336 -0.297067 1.989921
  H 1.752515 0.662407 3.174277
  H 1.984303 2.192347 2.316476
  H 2.380623 -0.528669 -1.630597
  H 4.976636 -0.561488 0.051325
  H 4.702147 -2.015168 -3.737963
  H 4.910769 -0.319380 -4.070252
  H 6.824768 -0.761713 -1.195632
 23
 19.343240
  C 0.974239 0.205525 0.466168
  C 2.312299 0.107913 0.447742
  C 3.206652 0.591419 1.538866
  C 2.509326 1.328903 2.675667
  H 3.247872 1.664089 3.399733
  C 2.920629 -0.583516 -0.737709
  C 4.373378 -0.663923 -0.842923
  C 5.075655 -0.858861 -2.014756
  C 4.475504 -1.017917 -3.358487
  H 3.400581 -0.899164 -3.365526
  O 6.391455 -0.925224 -2.018774
  H 0.436758 0.675358 1.268785
  H 2.525313 -1.604197 -0.576626
  H 0.369792 -0.167743 -0.342848
  H 3.954247 1.252615 1.089062
  H 3.742137 -0.263434 1.962174
  H 1.805707 0.682294 3.193667
  H 1.978491 2.203323 2.307799
  H 2.442131 -0.262452 -1.664679
  H 4.944751 -0.589628 0.070950
  H 4.734080 -2.004168 -3.744099
  H 4.930526 -0.301903 -4.041977
  H 6.810813 -0.835833 -1.143499
 23
 18.664843
  C 0.980135 0.265070 0.447678
  C 2.321009 0.182358 0.425622
  C 3.196235 0.591746 1.562436
  C 2.480850 1.220958 2.751596
  H 3.212217 1.541901 3.489336
  C 2.946123 -0.405596 -0.799590
  C 4.402987 -0.506805 -0.882241
  C 5.087602 -0.873066 -2.023303
  C 4.455784 -1.230996 -3.313642
  H 3.375409 -1.196352 -3.284099
  O 6.403197 -0.936838 -2.044680
  H 0.441750 0.619697 1.306770
  H 2.514345 -1.419579 -0.863104
  H 0.376815 -0.024101 -0.395462
  H 3.933212 1.304731 1.179375
  H 3.746286 -0.286971 1.912727
  H 1.813449 0.510385 3.232706
  H 1.906484 2.092531 2.447921
  H 2.537113 0.087961 -1.689502
  H 4.984361 -0.302857 0.004300
  H 4.782982 -2.229836 -3.600973
  H 4.825093 -0.562882 -4.091327
  H 6.838896 -0.707982 -1.203836
