 31
 0.000000
  C 0.955507 0.145911 0.415914
  C 2.428568 0.140590 0.401501
  C 3.224876 0.605734 1.558077
  C 2.464707 1.098976 2.785722
  C 3.432568 1.538929 3.879827
  C 3.036386 -0.326362 -0.760761
  C 4.419626 -0.413108 -0.977562
  C 5.089766 -0.859569 -2.090704
  C 4.616704 -1.379537 -3.387480
  C 3.132839 -1.506809 -3.706077
  C 2.935500 -2.070483 -5.111886
  H 6.170576 -0.848499 -2.063039
  H 0.530380 0.517613 1.340802
  H 0.580519 -0.864843 0.249070
  H 0.579880 0.759671 -0.404025
  H 3.882470 1.413384 1.216953
  H 3.882930 -0.213002 1.870698
  H 1.828405 0.305144 3.181296
  H 1.828040 1.945527 2.522009
  H 4.068387 0.714137 4.193832
  H 2.882403 1.888478 4.749923
  H 4.068013 2.351859 3.535589
  H 2.373229 -0.642924 -1.548166
  H 5.042376 -0.082872 -0.155179
  H 5.083376 -2.365743 -3.508644
  H 5.083979 -0.750691 -4.156447
  H 2.650993 -0.529071 -3.660081
  H 2.650444 -2.181592 -2.997425
  H 3.382557 -1.420457 -5.860523
  H 1.874946 -2.159203 -5.334029
  H 3.382053 -3.057905 -5.203902
 31
 9.301872
  C 0.903323 0.156490 0.442374
  C 2.376290 0.142985 0.407477
  C 3.193484 0.602951 1.551088
  C 2.457384 1.101096 2.790984
  C 3.447065 1.534275 3.868201
  C 2.959386 -0.322950 -0.752246
  C 4.497441 -0.424526 -1.006021
  C 5.141229 -0.868228 -2.112275
  C 4.651011 -1.385056 -3.401246
  C 3.163140 -1.503623 -3.698199
  C 2.941792 -2.066057 -5.100902
  H 6.223081 -0.860513 -2.092918
  H 0.494379 0.530619 1.373283
  H 0.520204 -0.851997 0.279520
  H 0.519495 0.771312 -0.373116
  H 3.851577 1.405379 1.198971
  H 3.852080 -0.219585 1.852140
  H 1.822632 0.311464 3.197424
  H 1.822234 1.952115 2.538043
  H 4.082482 0.705120 4.171098
  H 2.914784 1.887635 4.747811
  H 4.082082 2.342685 3.512930
  H 2.291219 -0.637069 -1.533539
  H 5.125005 -0.097287 -0.191007
  H 5.111814 -2.373507 -3.529307
  H 5.112465 -0.759392 -4.176753
  H 2.688308 -0.522910 -3.644446
  H 2.687725 -2.175187 -2.981869
  H 3.381816 -1.418717 -5.856006
  H 1.877731 -2.148741 -5.308019
  H 3.381305 -3.056016 -5.199428
 31
 27.737822
  C 0.844061 0.160506 0.452476
  C 2.320971 0.138277 0.395581
  C 3.163608 0.592500 1.524876
  C 2.458896 1.096222 2.778901
  C 3.475221 1.520779 3.834630
  C 2.873155 -0.322370 -0.751093
  C 4.569964 -0.430406 -1.020797
  C 5.186214 -0.866935 -2.109092
  C 4.684768 -1.383519 -3.397384
  C 3.194666 -1.491789 -3.668764
  C 2.942659 -2.052365 -5.066755
  H 6.270403 -0.858119 -2.086876
  H 0.454829 0.537404 1.390357
  H 0.451434 -0.845225 0.293039
  H 0.450571 0.775630 -0.358598
  H 3.823302 1.386971 1.158359
  H 3.823933 -0.234225 1.809881
  H 1.826217 0.311653 3.198908
  H 1.825721 1.952953 2.539365
  H 4.109870 0.686283 4.123611
  H 2.965799 1.878743 4.725837
  H 4.109388 2.323500 3.465647
  H 2.220189 -0.638692 -1.537882
  H 5.177514 -0.101543 -0.201472
  H 5.140669 -2.373872 -3.533098
  H 5.141379 -0.761881 -4.179769
  H 2.729632 -0.507103 -3.603950
  H 2.728983 -2.158533 -2.941642
  H 3.373829 -1.408495 -5.829959
  H 1.874528 -2.127571 -5.255278
  H 3.373265 -3.045419 -5.173455
 31
 48.453598
  C 0.771313 0.189272 0.524283
  C 2.250150 0.153548 0.433595
  C 3.120347 0.601191 1.546432
  C 2.448437 1.110406 2.814279
  C 3.489627 1.526479 3.848796
  C 2.783140 -0.319568 -0.744159
  C 4.636098 -0.439604 -1.043722
  C 5.248739 -0.889603 -2.165568
  C 4.736969 -1.406865 -3.455501
  C 3.243543 -1.506909 -3.706486
  C 2.965067 -2.065535 -5.099633
  H 6.335281 -0.882234 -2.146927
  H 0.410009 0.570140 1.472042
  H 0.365460 -0.812066 0.372671
  H 0.364484 0.806566 -0.278099
  H 3.781007 1.387778 1.164267
  H 3.781711 -0.230627 1.814564
  H 1.817746 0.331134 3.247462
  H 1.817184 1.972368 2.587992
  H 4.123323 0.686807 4.124654
  H 3.002168 1.888643 4.750537
  H 4.122756 2.323935 3.466756
  H 2.136704 -0.638519 -1.537426
  H 5.230186 -0.106305 -0.213179
  H 5.187872 -2.398231 -3.597244
  H 5.188603 -0.788738 -4.242959
  H 2.786857 -0.518647 -3.632285
  H 2.786161 -2.169705 -2.970121
  H 3.388493 -1.424632 -5.869706
  H 1.893737 -2.134173 -5.271871
  H 3.387848 -3.061199 -5.213325
 31
 67.565146
  C 0.705594 0.205424 0.564678
  C 2.182561 0.152001 0.430143
  C 3.086173 0.591303 1.521912
  C 2.456874 1.107208 2.806274
  C 3.527279 1.512754 3.814217
  C 2.678400 -0.329986 -0.769329
  C 4.692419 -0.451080 -1.071775
  C 5.273908 -0.888895 -2.163611
  C 4.778940 -1.405497 -3.452079
  C 3.282128 -1.500614 -3.690719
  C 2.980423 -2.056845 -5.078475
  H 6.360073 -0.874392 -2.127414
  H 0.384046 0.591364 1.524300
  H 0.283311 -0.789839 0.422112
  H 0.282449 0.824251 -0.227295
  H 3.749785 1.363901 1.115946
  H 3.750478 -0.246811 1.763262
  H 1.828251 0.335100 3.255533
  H 1.827608 1.975056 2.596449
  H 4.159562 0.666902 4.074489
  H 3.066766 1.879821 4.727985
  H 4.158903 2.303906 3.416523
  H 2.071509 -0.658969 -1.587450
  H 5.220211 -0.104067 -0.206884
  H 5.230059 -2.395407 -3.594359
  H 5.230690 -0.788632 -4.238875
  H 2.835614 -0.508138 -3.603969
  H 2.834983 -2.158003 -2.942521
  H 3.397999 -1.418644 -5.854126
  H 1.906943 -2.120334 -5.237856
  H 3.397357 -3.054364 -5.198363
 31
 84.317037
  C 0.645282 0.226625 0.619559
  C 2.127991 0.153709 0.435421
  C 3.063871 0.587749 1.513681
  C 2.467597 1.108678 2.809533
  C 3.561806 1.505540 3.794289
  C 2.553166 -0.318503 -0.740064
  C 4.722086 -0.455018 -1.079408
  C 5.280438 -0.890887 -2.166963
  C 4.817672 -1.414457 -3.474972
  C 3.317093 -1.509333 -3.714001
  C 3.022133 -2.065393 -5.101301
  H 6.370087 -0.872715 -2.120350
  H 0.377853 0.617796 1.592639
  H 0.205857 -0.760106 0.495462
  H 0.204713 0.852093 -0.153011
  H 3.726637 1.352338 1.096564
  H 3.728089 -0.251716 1.741371
  H 1.842232 0.341937 3.272574
  H 1.841239 1.981835 2.612861
  H 4.192400 0.654193 4.041496
  H 3.123278 1.876549 4.717104
  H 4.191415 2.291551 3.382727
  H 1.976142 -0.652489 -1.571342
  H 5.182047 -0.095772 -0.182466
  H 5.269081 -2.401293 -3.613209
  H 5.270803 -0.797586 -4.256519
  H 2.870470 -0.517489 -3.623903
  H 2.869505 -2.163813 -2.963893
  H 3.442095 -1.426669 -5.875294
  H 1.948801 -2.129513 -5.262793
  H 3.441082 -3.062281 -5.219483
 31
 92.277489
  C 0.602645 0.232499 0.634581
  C 2.113908 0.146974 0.420436
  C 3.059597 0.584191 1.506847
  C 2.459064 1.105962 2.802137
  C 3.560067 1.500860 3.781388
  C 2.475731 -0.317238 -0.734674
  C 4.800641 -0.465578 -1.105028
  C 5.326452 -0.899086 -2.187285
  C 4.855698 -1.423485 -3.497993
  C 3.349028 -1.500670 -3.692781
  C 3.017476 -2.053615 -5.072981
  H 6.429282 -0.884827 -2.150516
  H 0.384872 0.627849 1.617935
  H 0.152022 -0.750459 0.531153
  H 0.151485 0.869929 -0.120478
  H 3.719090 1.351876 1.094647
  H 3.720312 -0.254011 1.740998
  H 1.836414 0.340016 3.268372
  H 1.836064 1.980874 2.607082
  H 4.188979 0.647206 4.024266
  H 3.126878 1.873400 4.706010
  H 4.188601 2.284599 3.364376
  H 1.937232 -0.659342 -1.585686
  H 5.212652 -0.101459 -0.196300
  H 5.294091 -2.416657 -3.646554
  H 5.295670 -0.808982 -4.291165
  H 2.911139 -0.506412 -3.591942
  H 2.910395 -2.149872 -2.933474
  H 3.423847 -1.418099 -5.857171
  H 1.939454 -2.106497 -5.206304
  H 3.423037 -3.055159 -5.201137
 31
 98.211713
  C 0.554414 0.247715 0.671333
  C 2.059703 0.152575 0.434490
  C 3.028708 0.585300 1.510089
  C 2.451625 1.113162 2.820072
  C 3.574303 1.499862 3.779596
  C 2.388225 -0.313864 -0.725798
  C 4.868039 -0.476351 -1.132801
  C 5.376768 -0.911894 -2.220402
  C 4.898423 -1.434091 -3.525009
  C 3.385105 -1.503105 -3.698094
  C 3.029710 -2.054149 -5.073578
  H 6.476036 -0.900393 -2.191323
  H 0.363501 0.645028 1.659154
  H 0.096230 -0.733978 0.578390
  H 0.096136 0.891588 -0.075459
  H 3.685662 1.352293 1.085857
  H 3.686426 -0.261099 1.735366
  H 1.832213 0.351096 3.298745
  H 1.832229 1.994175 2.636521
  H 4.200971 0.641156 4.010678
  H 3.161041 1.875842 4.712492
  H 4.200998 2.278825 3.350666
  H 1.864534 -0.659044 -1.584008
  H 5.256965 -0.107049 -0.211679
  H 5.329640 -2.428095 -3.676257
  H 5.330572 -0.820402 -4.320872
  H 2.955577 -0.505957 -3.590665
  H 2.955429 -2.150250 -2.931991
  H 3.427949 -1.420915 -5.863151
  H 1.949889 -2.101233 -5.191462
  H 3.427739 -3.057458 -5.207473
 31
 102.706326
  C 0.503932 0.264167 0.711246
  C 2.009077 0.157720 0.447130
  C 2.996830 0.582498 1.503322
  C 2.444910 1.112644 2.818931
  C 3.586207 1.490846 3.757842
  C 2.307735 -0.310408 -0.717221
  C 4.943668 -0.484610 -1.154253
  C 5.435541 -0.921531 -2.245487
  C 4.941118 -1.442221 -3.545796
  C 3.424299 -1.499125 -3.687468
  C 3.035162 -2.046967 -5.054903
  H 6.538770 -0.913668 -2.226111
  H 0.340806 0.663511 1.703954
  H 0.037552 -0.713475 0.630004
  H 0.037771 0.913344 -0.024384
  H 3.647869 1.345319 1.068736
  H 3.648289 -0.268265 1.718338
  H 1.829639 0.355018 3.307821
  H 1.829882 1.997682 2.645830
  H 4.210421 0.627604 3.977730
  H 3.192030 1.869508 4.697396
  H 4.210646 2.265212 3.317831
  H 1.801735 -0.659119 -1.584011
  H 5.303240 -0.113013 -0.227696
  H 5.362477 -2.440242 -3.702346
  H 5.362792 -0.828975 -4.348324
  H 3.006721 -0.498078 -3.570535
  H 3.007104 -2.142840 -2.911780
  H 3.422095 -1.416575 -5.852646
  H 1.952683 -2.085505 -5.150590
  H 3.422435 -3.053644 -5.196895
 31
 105.881821
  C 0.455389 0.277453 0.743586
  C 1.955585 0.160337 0.453696
  C 2.965540 0.578455 1.493445
  C 2.438369 1.113357 2.820745
  C 3.600199 1.483454 3.739788
  C 2.226211 -0.309300 -0.714167
  C 5.019187 -0.493310 -1.176408
  C 5.495806 -0.931843 -2.271892
  C 4.984178 -1.449745 -3.564943
  C 3.463036 -1.493376 -3.672569
  C 3.037371 -2.037501 -5.030886
  H 6.599049 -0.928113 -2.263306
  H 0.318456 0.678067 1.739182
  H -0.018488 -0.697298 0.673284
  H -0.017972 0.932174 0.017689
  H 3.612538 1.339336 1.046185
  H 3.612751 -0.279878 1.698133
  H 1.826723 0.359422 3.321218
  H 1.827094 2.003866 2.658507
  H 4.221977 0.615475 3.948428
  H 3.225730 1.865056 4.686573
  H 4.222325 2.253366 3.288416
  H 1.739874 -0.661546 -1.589657
  H 5.348462 -0.116943 -0.238041
  H 5.394339 -2.450453 -3.726585
  H 5.394190 -0.837712 -4.373017
  H 3.058753 -0.487957 -3.545309
  H 3.059548 -2.133464 -2.886443
  H 3.411749 -1.410413 -5.836931
  H 1.952858 -2.066644 -5.102441
  H 3.412506 -3.047313 -5.181480
 31
 108.042724
  C 0.405780 0.292522 0.781118
  C 1.901554 0.163369 0.462110
  C 2.933309 0.573753 1.482234
  C 2.433421 1.111797 2.816466
  C 3.614141 1.472950 3.713140
  C 2.144624 -0.307857 -0.708996
  C 5.094974 -0.500779 -1.194764
  C 5.556879 -0.940481 -2.293490
  C 5.026643 -1.456262 -3.581405
  C 3.502452 -1.486360 -3.655087
  C 3.041001 -2.026176 -5.003203
  H 6.661461 -0.941140 -2.296108
  H 0.296170 0.694786 1.780145
  H -0.076198 -0.678624 0.722690
  H -0.075396 0.952684 0.065920
  H 3.574195 1.330609 1.022939
  H 3.574036 -0.290101 1.675901
  H 1.826413 0.362563 3.327937
  H 1.826991 2.006608 2.665019
  H 4.232855 0.600374 3.910339
  H 3.260103 1.857365 4.666267
  H 4.233372 2.237952 3.250072
  H 1.678495 -0.663752 -1.593209
  H 5.390256 -0.121870 -0.249961
  H 5.425630 -2.460743 -3.748124
  H 5.425291 -0.844685 -4.395591
  H 3.112089 -0.476920 -3.517754
  H 3.112971 -2.122661 -2.859136
  H 3.402980 -1.402109 -5.817334
  H 1.954909 -2.045758 -5.050752
  H 3.403816 -3.039296 -5.162105
 31
 109.443624
  C 0.357004 0.306413 0.815937
  C 1.846167 0.165444 0.467704
  C 2.901031 0.568370 1.468920
  C 2.428460 1.110624 2.813253
  C 3.629517 1.463088 3.688073
  C 2.062497 -0.307085 -0.706224
  C 5.170591 -0.508332 -1.213466
  C 5.618005 -0.949492 -2.315930
  C 5.068273 -1.462266 -3.596440
  C 3.541870 -1.478203 -3.635000
  C 3.044125 -2.013483 -4.972086
  H 6.722798 -0.955230 -2.331198
  H 0.274093 0.709511 1.816742
  H -0.132556 -0.661192 0.769097
  H -0.131733 0.971888 0.111371
  H 3.536447 1.322514 0.996396
  H 3.536203 -0.302801 1.651407
  H 1.825810 0.365302 3.336528
  H 1.826378 2.010776 2.672846
  H 4.245270 0.585646 3.873734
  H 3.296372 1.850308 4.647879
  H 4.245742 2.223515 3.213136
  H 1.617499 -0.666472 -1.598798
  H 5.431615 -0.125467 -0.258679
  H 5.455236 -2.469772 -3.767870
  H 5.454940 -0.851640 -4.416030
  H 3.166185 -0.464480 -3.487664
  H 3.166910 -2.110770 -2.828925
  H 3.393242 -1.392661 -5.794175
  H 1.957168 -2.023159 -4.995063
  H 3.393958 -3.029772 -5.139088
 31
 110.287486
  C 0.308627 0.321967 0.854876
  C 1.790386 0.168446 0.475210
  C 2.868221 0.563188 1.455777
  C 2.424554 1.108288 2.807477
  C 3.644455 1.451285 3.658469
  C 1.980058 -0.305219 -0.701375
  C 5.246026 -0.514492 -1.229378
  C 5.679000 -0.957083 -2.335012
  C 5.109012 -1.467491 -3.609279
  C 3.581076 -1.469704 -3.614243
  C 3.049338 -2.000471 -4.939857
  H 6.784054 -0.968209 -2.363446
  H 0.253231 0.725872 1.857729
  H -0.188896 -0.641916 0.820050
  H -0.188158 0.993054 0.161567
  H 3.496801 1.313687 0.970619
  H 3.496745 -0.314046 1.626595
  H 1.827252 0.367448 3.342002
  H 1.827586 2.012863 2.678403
  H 4.256712 0.569217 3.832128
  H 3.332832 1.840810 4.624234
  H 4.256924 2.206908 3.171678
  H 1.556342 -0.668062 -1.602213
  H 5.470832 -0.129389 -0.269185
  H 5.484317 -2.478557 -3.784951
  H 5.484282 -0.857466 -4.434484
  H 3.219803 -0.452161 -3.457903
  H 3.220197 -2.098486 -2.798945
  H 3.386247 -1.382734 -5.769358
  H 1.962097 -2.000630 -4.939595
  H 3.386630 -3.019819 -5.114073
 31
 110.737278
  C 0.259989 0.336628 0.892613
  C 1.732386 0.171483 0.482910
  C 2.833661 0.558029 1.442180
  C 2.420611 1.106709 2.803406
  C 3.661099 1.440112 3.629684
  C 1.898603 -0.303037 -0.695729
  C 5.322329 -0.520898 -1.244940
  C 5.741873 -0.965338 -2.354703
  C 5.148414 -1.472067 -3.619973
  C 3.620287 -1.460455 -3.592074
  C 3.055175 -1.986340 -4.905802
  H 6.846302 -0.983032 -2.398621
  H 0.228742 0.740799 1.896060
  H -0.244646 -0.623782 0.868831
  H -0.244432 1.012502 0.209714
  H 3.456116 1.305227 0.943224
  H 3.456544 -0.326002 1.600598
  H 1.828819 0.369966 3.350291
  H 1.828521 2.016574 2.686367
  H 4.269849 0.553047 3.790799
  H 3.372277 1.831998 4.601852
  H 4.269451 2.191128 3.130387
  H 1.492504 -0.668604 -1.602961
  H 5.517544 -0.133232 -0.278293
  H 5.511491 -2.486320 -3.800037
  H 5.512144 -0.863144 -4.450554
  H 3.273114 -0.439273 -3.427342
  H 3.272735 -2.085660 -2.768147
  H 3.380021 -1.371654 -5.742290
  H 1.968252 -1.976863 -4.882754
  H 3.379632 -3.008606 -5.086883
