 28
 0.000000
  C 0.946646 0.148786 0.415016
  C 2.419455 0.140218 0.399298
  C 3.219403 0.603003 1.553898
  C 2.465001 1.098058 2.784831
  C 3.444795 1.532626 3.870831
  C 3.026156 -0.327615 -0.764961
  C 4.407452 -0.409377 -0.973236
  C 5.084887 -0.854971 -2.084713
  C 4.615933 -1.376391 -3.380972
  C 3.134630 -1.506303 -3.699785
  H 3.016195 -1.907795 -4.698754
  H 6.164416 -0.838552 -2.047842
  H 0.528740 0.521710 1.341851
  H 0.567738 -0.859115 0.237993
  H 0.572598 0.756202 -0.410947
  H 3.881103 1.407370 1.212543
  H 3.879203 -0.215451 1.864031
  H 1.829191 0.305940 3.183930
  H 1.831356 1.947752 2.524992
  H 4.079001 0.704016 4.177852
  H 2.906842 1.885102 4.747314
  H 4.081216 2.342076 3.520357
  H 2.356699 -0.643156 -1.547095
  H 5.039574 -0.080446 -0.158124
  H 5.092636 -2.358512 -3.500339
  H 5.090821 -0.749064 -4.147115
  H 2.645935 -0.535279 -3.664423
  H 2.648008 -2.184045 -3.002066
 28
 1.783330
  C 1.008897 0.101279 0.382372
  C 2.480425 0.124180 0.439308
  C 3.253962 0.616740 1.597712
  C 2.459390 1.105433 2.803612
  C 3.396897 1.574665 3.910830
  C 3.068253 -0.336424 -0.725785
  C 4.442866 -0.448067 -0.970408
  C 5.078600 -0.892424 -2.119395
  C 4.579260 -1.378351 -3.416989
  C 3.090211 -1.466342 -3.704925
  H 2.945792 -1.848023 -4.713146
  H 6.162550 -0.891596 -2.078480
  H 0.509665 0.547349 1.235139
  H 0.652030 -0.925341 0.261921
  H 0.737033 0.607609 -0.556956
  H 3.910433 1.425009 1.257142
  H 3.929880 -0.181728 1.924317
  H 1.831955 0.301053 3.191554
  H 1.813053 1.936884 2.516624
  H 4.042758 0.765260 4.243986
  H 2.826452 1.922522 4.768392
  H 4.023202 2.395866 3.569315
  H 2.325873 -0.601027 -1.480812
  H 5.098103 -0.152435 -0.160777
  H 5.036057 -2.365966 -3.569854
  H 5.059318 -0.753699 -4.182991
  H 2.621141 -0.487695 -3.650650
  H 2.596758 -2.148647 -3.018011
 28
 5.870495
  C 1.070331 0.077671 0.347532
  C 2.533321 0.119209 0.456637
  C 3.278562 0.623346 1.613028
  C 2.446479 1.104286 2.803808
  C 3.350204 1.592769 3.934295
  C 3.109066 -0.340997 -0.721829
  C 4.475250 -0.475144 -0.994883
  C 5.079223 -0.914089 -2.145476
  C 4.547825 -1.374313 -3.424578
  C 3.049444 -1.428178 -3.676986
  H 2.873728 -1.795457 -4.674701
  H 6.153092 -0.931635 -2.122309
  H 0.511475 0.598465 1.115186
  H 0.741343 -0.959357 0.324921
  H 0.899071 0.443873 -0.667917
  H 3.932518 1.440041 1.275649
  H 3.965060 -0.166727 1.954808
  H 1.821547 0.289487 3.176509
  H 1.793190 1.924770 2.497393
  H 4.001166 0.794972 4.285890
  H 2.753421 1.933953 4.776887
  H 3.971593 2.423231 3.605179
  H 2.298115 -0.562067 -1.433395
  H 5.149045 -0.197595 -0.185506
  H 4.981516 -2.366836 -3.597139
  H 5.023942 -0.756478 -4.195503
  H 2.603654 -0.436903 -3.605913
  H 2.557716 -2.107372 -2.981953
 28
 12.031880
  C 1.111057 0.065173 0.324601
  C 2.567846 0.120547 0.475967
  C 3.297804 0.635598 1.643660
  C 2.442076 1.104128 2.810730
  C 3.312212 1.601995 3.955170
  C 3.138084 -0.338030 -0.709450
  C 4.495455 -0.486543 -1.003344
  C 5.079544 -0.926241 -2.165960
  C 4.519125 -1.376679 -3.447586
  C 3.019932 -1.409347 -3.674039
  H 2.818947 -1.775909 -4.683808
  H 6.166609 -0.956946 -2.158233
  H 0.512976 0.664799 0.999322
  H 0.785747 -0.976249 0.412938
  H 1.034458 0.294872 -0.755509
  H 3.943996 1.454572 1.314616
  H 3.985584 -0.139196 1.996575
  H 1.820057 0.283845 3.167596
  H 1.786680 1.913670 2.490638
  H 3.964874 0.812569 4.320595
  H 2.693849 1.936034 4.783810
  H 3.929768 2.439100 3.638412
  H 2.289048 -0.522900 -1.380627
  H 5.177300 -0.222897 -0.207792
  H 4.936836 -2.375756 -3.631082
  H 4.990367 -0.760954 -4.225436
  H 2.592297 -0.415837 -3.591474
  H 2.533966 -2.080465 -2.974068
 28
 20.574464
  C 1.143092 0.049604 0.302238
  C 2.589722 0.112650 0.480162
  C 3.304935 0.635580 1.651611
  C 2.430823 1.102959 2.810236
  C 3.288785 1.613170 3.971198
  C 3.161363 -0.345777 -0.707487
  C 4.513339 -0.501510 -1.015635
  C 5.082118 -0.938900 -2.189757
  C 4.501206 -1.372427 -3.456083
  C 3.002482 -1.387154 -3.652927
  H 2.779731 -1.743419 -4.654082
  H 6.159124 -0.980131 -2.200301
  H 0.525102 0.702892 0.906610
  H 0.808935 -0.977231 0.467523
  H 1.146552 0.176259 -0.815976
  H 3.947983 1.457209 1.325257
  H 3.994681 -0.130979 2.014879
  H 1.804979 0.272892 3.162950
  H 1.769224 1.912740 2.476532
  H 3.944630 0.826684 4.348738
  H 2.656277 1.946801 4.794042
  H 3.907128 2.456545 3.658751
  H 2.259605 -0.497089 -1.356242
  H 5.210037 -0.242342 -0.221516
  H 4.904100 -2.374277 -3.651945
  H 4.964370 -0.757132 -4.238022
  H 2.588703 -0.388104 -3.556329
  H 2.523381 -2.056993 -2.945886
 28
 29.560107
  C 1.159507 0.049682 0.289218
  C 2.606582 0.110678 0.483448
  C 3.314644 0.634047 1.660709
  C 2.426409 1.100695 2.810635
  C 3.264152 1.607055 3.975303
  C 3.180964 -0.347321 -0.706111
  C 4.527778 -0.497871 -1.025703
  C 5.086001 -0.934387 -2.202825
  C 4.490209 -1.369445 -3.463720
  C 2.982076 -1.382630 -3.638443
  H 2.743036 -1.740713 -4.635349
  H 6.173240 -0.974723 -2.221549
  H 0.534811 0.767739 0.821451
  H 0.803687 -0.950377 0.534777
  H 1.233517 0.065993 -0.856726
  H 3.961099 1.460067 1.337538
  H 4.005914 -0.135424 2.032178
  H 1.801225 0.278231 3.152230
  H 1.773650 1.903345 2.473382
  H 3.912527 0.823656 4.358242
  H 2.623623 1.938753 4.787323
  H 3.883383 2.446924 3.671889
  H 2.234341 -0.475024 -1.330576
  H 5.229666 -0.231632 -0.239932
  H 4.889600 -2.372743 -3.662224
  H 4.944222 -0.755007 -4.252308
  H 2.570487 -0.381886 -3.537888
  H 2.512470 -2.050358 -2.922115
 28
 39.929099
  C 1.162657 0.079850 0.272947
  C 2.608576 0.130577 0.474793
  C 3.316726 0.635880 1.666692
  C 2.424819 1.096895 2.813679
  C 3.258307 1.576515 3.994027
  C 3.186776 -0.324932 -0.713117
  C 4.533953 -0.457286 -1.045370
  C 5.088671 -0.907716 -2.219199
  C 4.485633 -1.377249 -3.468078
  C 2.979510 -1.414783 -3.620738
  H 2.732081 -1.797385 -4.606431
  H 6.165059 -0.932559 -2.246023
  H 0.557070 0.838188 0.739359
  H 0.771295 -0.898585 0.573992
  H 1.286532 0.003284 -0.896955
  H 3.971919 1.458941 1.358396
  H 3.994418 -0.141643 2.033407
  H 1.783669 0.274053 3.138899
  H 1.782506 1.915602 2.480096
  H 3.892457 0.780615 4.371496
  H 2.615357 1.904598 4.803509
  H 3.890385 2.411396 3.708734
  H 2.189112 -0.452023 -1.315311
  H 5.236043 -0.155925 -0.277073
  H 4.896343 -2.379032 -3.650231
  H 4.920811 -0.773134 -4.274393
  H 2.556429 -0.417657 -3.535854
  H 2.530092 -2.073699 -2.882870
 28
 51.748011
  C 1.171612 0.103702 0.275552
  C 2.601966 0.143988 0.464035
  C 3.312539 0.637925 1.668011
  C 2.421234 1.091932 2.815979
  C 3.254419 1.551897 4.002380
  C 3.186144 -0.304039 -0.716657
  C 4.532357 -0.427175 -1.060056
  C 5.088389 -0.889459 -2.230082
  C 4.486156 -1.384531 -3.467717
  C 2.981813 -1.441616 -3.610685
  H 2.734082 -1.842248 -4.585934
  H 6.159095 -0.903501 -2.263007
  H 0.585671 0.886515 0.721813
  H 0.755201 -0.857910 0.593260
  H 1.314008 -0.020442 -0.932767
  H 3.970689 1.459430 1.371005
  H 3.982855 -0.145561 2.029898
  H 1.773307 0.269363 3.130535
  H 1.785435 1.919283 2.489423
  H 3.880891 0.748270 4.371895
  H 2.612967 1.875214 4.812541
  H 3.892428 2.384013 3.728124
  H 2.129746 -0.436693 -1.314465
  H 5.235140 -0.100981 -0.302694
  H 4.906723 -2.383974 -3.635679
  H 4.909489 -0.789170 -4.285953
  H 2.549311 -0.448144 -3.540261
  H 2.545553 -2.093123 -2.859203
 28
 60.419095
  C 1.164052 0.147516 0.266433
  C 2.601381 0.167787 0.447947
  C 3.313824 0.629487 1.654168
  C 2.418645 1.081964 2.810658
  C 3.255143 1.505319 4.015465
  C 3.190947 -0.274004 -0.727356
  C 4.530285 -0.369143 -1.082866
  C 5.089333 -0.848850 -2.236930
  C 4.488659 -1.393200 -3.454455
  C 2.974230 -1.488851 -3.572333
  H 2.718035 -1.928110 -4.539227
  H 6.182042 -0.837270 -2.275843
  H 0.589528 0.958298 0.688561
  H 0.718943 -0.801973 0.577221
  H 1.335629 -0.033841 -0.978715
  H 3.991727 1.451732 1.368961
  H 3.970488 -0.177687 2.008215
  H 1.753726 0.267648 3.105759
  H 1.801835 1.926198 2.496705
  H 3.866276 0.679350 4.375523
  H 2.610964 1.828071 4.832072
  H 3.914064 2.333230 3.759470
  H 2.090963 -0.421432 -1.327343
  H 5.228188 0.015536 -0.342303
  H 4.930845 -2.388527 -3.595400
  H 4.888392 -0.811200 -4.295284
  H 2.517696 -0.497106 -3.525297
  H 2.562130 -2.130276 -2.790370
 28
 68.640324
  C 1.152414 0.186742 0.278566
  C 2.589007 0.191281 0.436860
  C 3.310086 0.629319 1.653511
  C 2.421161 1.074704 2.812793
  C 3.261638 1.463920 4.024353
  C 3.187671 -0.245874 -0.729793
  C 4.525316 -0.322346 -1.100455
  C 5.090916 -0.816927 -2.243444
  C 4.497802 -1.404915 -3.448784
  C 2.982582 -1.534316 -3.555790
  H 2.730730 -2.003074 -4.507922
  H 6.178214 -0.784301 -2.285440
  H 0.597925 1.020025 0.690040
  H 0.687217 -0.752900 0.588919
  H 1.314917 -0.043781 -1.034219
  H 3.995055 1.445221 1.382318
  H 3.952362 -0.190859 1.996003
  H 1.743810 0.265902 3.092905
  H 1.818153 1.933467 2.512575
  H 3.859452 0.622098 4.370805
  H 2.621276 1.782804 4.845485
  H 3.933995 2.285791 3.782850
  H 2.033992 -0.412574 -1.364226
  H 5.214950 0.106877 -0.378365
  H 4.958999 -2.393757 -3.565345
  H 4.880970 -0.836215 -4.304572
  H 2.505607 -0.548475 -3.533048
  H 2.586766 -2.164872 -2.753294
 28
 76.679471
  C 1.126938 0.229456 0.304090
  C 2.570310 0.213290 0.426868
  C 3.305042 0.627221 1.652808
  C 2.427329 1.064496 2.816387
  C 3.275475 1.418076 4.028887
  C 3.182071 -0.211676 -0.725435
  C 4.517367 -0.272792 -1.117245
  C 5.090092 -0.782510 -2.246424
  C 4.509870 -1.419442 -3.442031
  C 3.000992 -1.587777 -3.541001
  H 2.760307 -2.086057 -4.472383
  H 6.166369 -0.725901 -2.289697
  H 0.591979 1.084637 0.716773
  H 0.641315 -0.700358 0.593007
  H 1.272058 -0.036282 -1.102258
  H 3.994420 1.434694 1.394293
  H 3.932686 -0.204976 1.979529
  H 1.739758 0.262845 3.083663
  H 1.838549 1.936343 2.533399
  H 3.860117 0.561426 4.358072
  H 2.643362 1.732206 4.855847
  H 3.959675 2.232474 3.799465
  H 1.958942 -0.398048 -1.415824
  H 5.198963 0.200340 -0.413595
  H 4.993705 -2.400625 -3.531208
  H 4.877082 -0.864303 -4.313682
  H 2.503559 -0.618792 -3.546671
  H 2.623975 -2.201310 -2.725145
 28
 83.891197
  C 1.103817 0.274926 0.331640
  C 2.547902 0.239005 0.410788
  C 3.298786 0.623655 1.643441
  C 2.429332 1.052172 2.825307
  C 3.292420 1.365702 4.039915
  C 3.176027 -0.170649 -0.727292
  C 4.499956 -0.219481 -1.142481
  C 5.081534 -0.746133 -2.252959
  C 4.518682 -1.437000 -3.427975
  C 3.024508 -1.645734 -3.515115
  H 2.794422 -2.182929 -4.426328
  H 6.164167 -0.662492 -2.300132
  H 0.595867 1.134001 0.748268
  H 0.595298 -0.651415 0.582977
  H 1.216609 -0.018134 -1.189549
  H 4.001487 1.434342 1.393181
  H 3.915228 -0.227936 1.950068
  H 1.730182 0.256292 3.080949
  H 1.854109 1.939926 2.565726
  H 3.863494 0.494128 4.346017
  H 2.672020 1.672580 4.876845
  H 3.987612 2.171407 3.823197
  H 1.877580 -0.372692 -1.493140
  H 5.173676 0.302147 -0.456877
  H 5.026524 -2.409650 -3.483576
  H 4.868365 -0.900047 -4.319916
  H 2.508088 -0.697996 -3.555215
  H 2.668533 -2.233500 -2.683479
 28
 89.877785
  C 1.086579 0.310718 0.360168
  C 2.520463 0.259981 0.392120
  C 3.289494 0.620327 1.635650
  C 2.433303 1.035115 2.831725
  C 3.313905 1.312985 4.043680
  C 3.173081 -0.129448 -0.726052
  C 4.484741 -0.170625 -1.163282
  C 5.079587 -0.711589 -2.257360
  C 4.534499 -1.453343 -3.410892
  C 3.042446 -1.700814 -3.483313
  H 2.819692 -2.276708 -4.375725
  H 6.160757 -0.600629 -2.308291
  H 0.599966 1.169998 0.792318
  H 0.559320 -0.609079 0.557047
  H 1.155515 0.004151 -1.298102
  H 3.992211 1.426528 1.395871
  H 3.897693 -0.246599 1.920666
  H 1.726315 0.242068 3.078609
  H 1.867246 1.935908 2.596495
  H 3.876638 0.428418 4.326000
  H 2.706260 1.610480 4.892191
  H 4.016995 2.113860 3.835843
  H 1.797048 -0.349323 -1.592664
  H 5.143242 0.389566 -0.498196
  H 5.064194 -2.411989 -3.435020
  H 4.865851 -0.937385 -4.317505
  H 2.503335 -0.765607 -3.555364
  H 2.702751 -2.267337 -2.627563
 28
 93.876372
  C 1.055065 0.343547 0.395985
  C 2.482391 0.277965 0.375699
  C 3.275548 0.612912 1.623252
  C 2.441565 1.012890 2.836807
  C 3.348015 1.253804 4.038182
  C 3.160279 -0.090669 -0.728232
  C 4.461244 -0.124218 -1.180399
  C 5.075915 -0.676650 -2.257268
  C 4.558355 -1.470865 -3.388651
  C 3.069678 -1.763556 -3.453354
  H 2.863012 -2.380801 -4.326426
  H 6.150097 -0.534190 -2.307730
  H 0.590134 1.198426 0.859600
  H 0.504290 -0.571577 0.528221
  H 1.070345 0.043387 -1.416912
  H 3.979719 1.416155 1.388700
  H 3.873671 -0.265823 1.880658
  H 1.728542 0.223790 3.079315
  H 1.884414 1.926339 2.630158
  H 3.903758 0.355612 4.292631
  H 2.758573 1.541819 4.902978
  H 4.058488 2.050010 3.834163
  H 1.698037 -0.308279 -1.711842
  H 5.103198 0.477019 -0.533138
  H 5.116292 -2.414756 -3.379111
  H 4.876546 -0.974879 -4.311760
  H 2.502961 -0.842965 -3.561993
  H 2.741547 -2.308136 -2.572671
