 17
 0.000000
  C 1.007136 -0.072129 0.046267
  C 2.503454 -0.082834 0.025411
  C 3.221065 -0.594340 -0.979514
  C 4.658551 -0.605238 -1.000081
  C 5.378280 -1.121208 -2.012119
  C 6.816121 -1.131343 -2.033007
  C 7.531107 -1.642265 -3.035144
  H 8.603160 -1.654957 -3.060838
  H 0.645622 0.392646 0.962155
  H 0.611176 -1.086362 0.005660
  H 0.610269 0.494804 -0.795756
  H 3.002825 0.351701 0.880947
  H 2.711527 -1.027837 -1.830991
  H 5.163201 -0.169706 -0.147041
  H 4.873517 -1.556502 -2.865055
  H 7.323264 -0.696406 -1.180747
  H 7.033916 -2.078737 -3.890408
 17
 0.862681
  C 1.017233 0.024552 0.022059
  C 2.487693 -0.224891 0.073383
  C 3.201843 -0.708285 -0.949070
  C 4.635959 -0.725864 -0.973894
  C 5.377652 -1.205615 -1.987059
  C 6.808427 -1.084788 -2.056733
  C 7.544722 -1.553796 -3.062587
  H 8.614649 -1.441310 -3.089729
  H 0.747695 0.812890 0.721512
  H 0.443607 -0.865174 0.283616
  H 0.736900 0.342443 -0.979865
  H 2.982647 -0.004120 1.010292
  H 2.693390 -1.065279 -1.836529
  H 5.127295 -0.225576 -0.147426
  H 4.893605 -1.717475 -2.809456
  H 7.285771 -0.568125 -1.233099
  H 7.095331 -2.070217 -3.895491
 17
 13.289151
  C 1.090883 0.119074 -0.031394
  C 2.459443 -0.412546 0.177308
  C 3.192955 -0.949385 -0.824318
  C 4.608095 -0.785018 -0.945754
  C 5.377133 -1.316485 -1.921519
  C 6.770955 -1.029288 -2.075535
  C 7.524920 -1.500553 -3.073231
  H 8.572641 -1.272678 -3.152445
  H 0.944809 0.980612 0.623309
  H 0.299649 -0.590169 0.181002
  H 1.022235 0.455277 -1.057263
  H 2.823334 -0.429816 1.191677
  H 2.681930 -1.453454 -1.646093
  H 5.056590 -0.087436 -0.242421
  H 4.949864 -2.029710 -2.610216
  H 7.214597 -0.400336 -1.315624
  H 7.109255 -2.133533 -3.846730
 17
 40.392809
  C 1.204962 0.278145 -0.118004
  C 2.427013 -0.492071 0.246913
  C 3.227748 -1.091722 -0.718748
  C 4.579285 -0.804050 -0.926828
  C 5.382911 -1.377651 -1.870986
  C 6.700090 -0.927922 -2.163157
  C 7.482997 -1.454641 -3.111374
  H 8.485025 -1.106398 -3.281127
  H 1.015075 1.030184 0.642245
  H 0.301062 -0.341495 -0.184438
  H 1.366105 0.776027 -1.069036
  H 2.549254 -0.734707 1.292834
  H 2.783564 -1.862887 -1.346108
  H 4.993381 -0.003066 -0.323067
  H 5.006176 -2.215495 -2.444041
  H 7.082130 -0.122599 -1.548162
  H 7.127384 -2.233551 -3.761399
 17
 47.494151
  C 1.323069 0.424181 -0.093135
  C 2.341764 -0.614704 0.217543
  C 3.259188 -1.163194 -0.694661
  C 4.487451 -0.639898 -1.074123
  C 5.337461 -1.309132 -1.916536
  C 6.647343 -0.855224 -2.227183
  C 7.470150 -1.467238 -3.098677
  H 8.444994 -1.087164 -3.316773
  H 1.145665 1.100620 0.736206
  H 0.377371 -0.098835 -0.290536
  H 1.568711 0.990350 -0.996394
  H 2.266987 -1.083846 1.198867
  H 3.032648 -2.164600 -1.058683
  H 4.801058 0.296115 -0.653309
  H 5.023770 -2.243690 -2.355218
  H 6.979138 0.050220 -1.740946
  H 7.199944 -2.399458 -3.571367
 17
 20.572418
  C 1.455430 0.519681 -0.103739
  C 2.297668 -0.675229 0.194482
  C 3.274126 -1.234518 -0.571032
  C 4.460924 -0.642186 -1.094438
  C 5.324200 -1.338491 -1.857341
  C 6.589878 -0.814922 -2.319385
  C 7.434934 -1.495517 -3.094497
  H 8.336969 -1.055650 -3.490570
  H 1.165742 1.069087 0.791875
  H 0.534664 0.129139 -0.554968
  H 1.889248 1.195503 -0.837018
  H 1.916864 -1.283234 1.006029
  H 3.214810 -2.311177 -0.712012
  H 4.710540 0.354154 -0.772071
  H 5.042903 -2.323272 -2.209012
  H 6.862279 0.182142 -1.970929
  H 7.217620 -2.505089 -3.403084
 17
 5.981688
  C 1.594358 0.578990 -0.117149
  C 2.223085 -0.747122 0.128178
  C 3.277323 -1.290443 -0.500192
  C 4.412560 -0.646190 -1.108555
  C 5.292000 -1.350810 -1.847452
  C 6.527713 -0.815581 -2.346635
  C 7.359410 -1.485067 -3.141661
  H 8.289801 -1.063782 -3.480802
  H 1.385043 1.112350 0.812857
  H 0.634636 0.395933 -0.603648
  H 2.169314 1.205831 -0.790930
  H 1.655436 -1.382158 0.798013
  H 3.362290 -2.371479 -0.458425
  H 4.583440 0.399397 -0.888853
  H 5.103164 -2.400806 -2.043144
  H 6.762985 0.201612 -2.053360
  H 7.142401 -2.488121 -3.463770
 17
 1.355996
  C 1.781300 0.657316 -0.140471
  C 2.145808 -0.778763 0.014854
  C 3.281624 -1.365512 -0.368420
  C 4.417851 -0.731996 -0.996340
  C 5.285354 -1.404459 -1.770631
  C 6.412668 -0.796137 -2.423823
  C 7.268477 -1.460396 -3.198729
  H 8.097855 -0.974584 -3.681221
  H 1.522814 1.087008 0.826425
  H 0.901091 0.740618 -0.779844
  H 2.581052 1.235878 -0.586618
  H 1.381429 -1.386506 0.482785
  H 3.378514 -2.435104 -0.228702
  H 4.567922 0.327212 -0.839176
  H 5.148959 -2.467389 -1.930223
  H 6.539512 0.267445 -2.267203
  H 7.155740 -2.515267 -3.385759
 17
 3.930321
  C 1.901960 0.660824 -0.357035
  C 2.191983 -0.745012 0.055993
  C 3.338949 -1.383444 -0.154724
  C 4.530293 -0.801930 -0.762780
  C 5.198737 -1.373732 -1.769760
  C 6.394522 -0.818335 -2.355097
  C 7.055128 -1.380345 -3.363761
  H 7.957282 -0.950995 -3.767367
  H 1.408458 1.206577 0.445745
  H 1.231149 0.657015 -1.215636
  H 2.812166 1.178671 -0.645130
  H 1.371833 -1.267048 0.531668
  H 3.422350 -2.427995 0.124843
  H 4.900558 0.123694 -0.338174
  H 4.835501 -2.298574 -2.199529
  H 6.758885 0.100055 -1.914773
  H 6.716048 -2.297520 -3.817435
 17
 6.509384
  C 2.042591 0.592328 -0.618514
  C 2.224872 -0.729600 0.052822
  C 3.374787 -1.387550 0.033657
  C 4.606807 -0.868882 -0.576736
  C 5.106525 -1.283181 -1.741772
  C 6.379431 -0.849474 -2.267233
  C 6.857585 -1.224104 -3.449702
  H 7.809743 -0.880471 -3.817185
  H 1.433882 1.268761 -0.024598
  H 1.564810 0.456770 -1.588748
  H 3.025973 1.021083 -0.813043
  H 1.364657 -1.141787 0.565001
  H 3.464383 -2.357589 0.506479
  H 5.204158 -0.221626 0.058239
  H 4.532754 -1.959948 -2.362015
  H 6.954667 -0.181401 -1.634287
  H 6.300895 -1.880753 -4.099394
 17
 16.823545
  C 2.110747 0.564975 -0.650188
  C 2.188458 -0.736846 0.070321
  C 3.340479 -1.390485 0.026671
  C 4.507578 -0.760244 -0.637304
  C 5.034108 -1.181816 -1.792120
  C 6.352287 -0.800829 -2.261274
  C 6.862725 -1.192653 -3.421786
  H 7.863749 -0.932646 -3.733710
  H 1.550331 1.325680 -0.151742
  H 1.796324 0.459110 -1.690290
  H 3.176980 0.777946 -0.825873
  H 1.376781 -1.083383 0.693193
  H 3.462475 -2.380819 0.436577
  H 5.214488 -0.295025 0.037842
  H 4.437523 -1.799979 -2.469215
  H 6.944249 -0.191194 -1.595748
  H 6.299333 -1.824051 -4.090525
 17
 46.123465
  C 2.114496 0.521358 -0.671714
  C 2.181812 -0.746577 0.076956
  C 3.345645 -1.390144 0.007006
  C 4.404573 -0.609212 -0.658267
  C 4.972022 -1.062183 -1.824933
  C 6.305625 -0.763200 -2.249132
  C 6.843915 -1.178173 -3.400250
  H 7.860303 -1.016567 -3.645954
  H 1.526169 1.318219 -0.258746
  H 2.064902 0.471863 -1.753300
  H 3.450739 0.536941 -0.830725
  H 1.370157 -1.072994 0.698532
  H 3.540535 -2.388385 0.365137
  H 5.147619 -0.217851 0.037943
  H 4.363963 -1.684481 -2.480010
  H 6.907705 -0.197234 -1.557658
  H 6.257572 -1.763265 -4.106006
 17
 59.091198
  C 1.947406 0.481420 -0.619156
  C 2.163868 -0.753075 0.044861
  C 3.378262 -1.325772 -0.059833
  C 4.411882 -0.443066 -0.680402
  C 4.983019 -0.966635 -1.877996
  C 6.328327 -0.799446 -2.250363
  C 6.876730 -1.303887 -3.373980
  H 7.906329 -1.130556 -3.630907
  H 1.252712 1.192450 -0.195643
  H 2.049684 0.545253 -1.690133
  H 3.723550 0.501069 -0.819668
  H 1.397541 -1.159493 0.693251
  H 3.631767 -2.317858 0.273558
  H 5.172163 -0.121329 0.034936
  H 4.345088 -1.544831 -2.532798
  H 6.949566 -0.212284 -1.583251
  H 6.298911 -1.903892 -4.056694
 17
 52.373949
  C 1.703134 0.320147 -0.638711
  C 2.253660 -0.811454 -0.094361
  C 3.600469 -1.110710 -0.161611
  C 4.523264 -0.066819 -0.667199
  C 4.998235 -0.724677 -1.878009
  C 6.350240 -0.889236 -2.204441
  C 6.795352 -1.529342 -3.307830
  H 7.839865 -1.570967 -3.556018
  H 0.767308 0.699917 -0.263788
  H 2.005384 0.703559 -1.596152
  H 3.916931 0.844170 -0.805444
  H 1.622085 -1.461582 0.501616
  H 3.993958 -2.072773 0.120838
  H 5.321377 0.175133 0.036899
  H 4.258884 -1.171609 -2.526022
  H 7.072863 -0.436364 -1.536758
  H 6.112592 -2.005222 -3.990417
 17
 51.454473
  C 1.490695 0.310153 -0.440958
  C 2.218931 -0.733277 0.023069
  C 3.562259 -1.011868 -0.246877
  C 4.478254 -0.032560 -0.867192
  C 5.048677 -0.745820 -2.016444
  C 6.417325 -0.920133 -2.225411
  C 6.951423 -1.637162 -3.245361
  H 8.011778 -1.664171 -3.424459
  H 0.500040 0.503513 -0.065602
  H 1.844806 0.964817 -1.218745
  H 3.920075 0.868350 -1.130241
  H 1.745689 -1.398320 0.734438
  H 3.917463 -2.028263 -0.147223
  H 5.254692 0.283583 -0.162969
  H 4.359368 -1.279513 -2.655060
  H 7.088752 -0.398466 -1.551957
  H 6.325374 -2.188695 -3.926416
