 20
 0.000000
  C 1.007109 -0.072448 0.045833
  C 2.503317 -0.082277 0.026539
  C 3.220580 -0.594700 -0.979437
  C 4.658531 -0.604666 -0.998999
  C 5.378170 -1.120069 -2.010821
  C 6.816364 -1.130490 -2.031276
  C 7.533362 -1.642590 -3.036620
  C 9.023465 -1.662237 -3.075184
  H 0.643416 0.393619 0.960796
  H 0.612302 -1.087659 0.006763
  H 0.612303 0.492854 -0.798333
  H 3.002245 0.353566 0.882176
  H 2.710504 -1.028475 -1.830997
  H 5.163060 -0.169736 -0.145161
  H 4.873188 -1.554888 -2.864443
  H 7.324264 -0.696223 -1.178736
  H 7.034414 -2.078939 -3.893229
  H 9.458036 -1.209137 -2.185681
  H 9.382385 -1.116297 -3.949175
  H 9.382386 -2.690190 -3.147465
 20
 0.409707
  C 1.015574 -0.134313 0.075542
  C 2.508897 -0.132297 0.051200
  C 3.236733 -0.540387 -0.992799
  C 4.671339 -0.537537 -1.020700
  C 5.399503 -0.943219 -2.074006
  C 6.837088 -0.977922 -2.092613
  C 7.538770 -1.662473 -2.997638
  C 9.025275 -1.749089 -3.039698
  H 0.634943 0.187105 1.042420
  H 0.627304 -1.131122 -0.132724
  H 0.617029 0.536519 -0.688660
  H 3.015213 0.226655 0.937307
  H 2.738122 -0.902252 -1.882569
  H 5.170574 -0.182802 -0.130218
  H 4.895877 -1.313728 -2.956739
  H 7.348796 -0.430766 -1.306008
  H 7.001418 -2.221478 -3.754521
  H 9.471653 -1.181513 -2.226967
  H 9.400715 -1.360515 -3.989636
  H 9.346759 -2.789732 -2.961445
 20
 1.517075
  C 1.020006 -0.180438 0.101235
  C 2.514003 -0.193663 0.059485
  C 3.226453 -0.488950 -1.031143
  C 4.662723 -0.494748 -1.075440
  C 5.377789 -0.842548 -2.156631
  C 6.820586 -0.888033 -2.180577
  C 7.520977 -1.711094 -2.959654
  C 9.007880 -1.801427 -2.982245
  H 0.657146 -0.074745 1.119746
  H 0.613654 -1.098442 -0.321415
  H 0.630438 0.650753 -0.487963
  H 3.029012 0.061955 0.976042
  H 2.714732 -0.747782 -1.950261
  H 5.174905 -0.217443 -0.162077
  H 4.865838 -1.154372 -3.058473
  H 7.337470 -0.229243 -1.493432
  H 6.997123 -2.397579 -3.612547
  H 9.452395 -1.118214 -2.262744
  H 9.385546 -1.558906 -3.976623
  H 9.329705 -2.816969 -2.750516
 20
 3.316118
  C 1.038264 -0.222306 0.114807
  C 2.529148 -0.250457 0.060286
  C 3.229918 -0.463347 -1.055679
  C 4.667165 -0.481089 -1.110922
  C 5.370200 -0.728492 -2.222728
  C 6.823141 -0.790869 -2.257356
  C 7.501468 -1.735986 -2.899543
  C 8.986532 -1.845786 -2.929680
  H 0.684409 -0.217309 1.140712
  H 0.616391 -1.085530 -0.397220
  H 0.657325 0.670562 -0.381204
  H 3.052797 -0.076472 0.990663
  H 2.709089 -0.641247 -1.990373
  H 5.188827 -0.296324 -0.177504
  H 4.850631 -0.948793 -3.146664
  H 7.354955 -0.036827 -1.690684
  H 6.960062 -2.512653 -3.426164
  H 9.447654 -1.071667 -2.323274
  H 9.350289 -1.752331 -3.953938
  H 9.302180 -2.819991 -2.558612
 20
 5.116980
  C 1.052985 -0.253258 0.119376
  C 2.546920 -0.302972 0.053533
  C 3.237904 -0.450209 -1.077600
  C 4.676205 -0.488250 -1.142385
  C 5.370046 -0.623083 -2.278056
  C 6.827303 -0.708672 -2.323964
  C 7.478060 -1.745846 -2.834678
  C 8.958029 -1.884861 -2.876278
  H 0.704113 -0.304930 1.147442
  H 0.613375 -1.077397 -0.441709
  H 0.683983 0.674714 -0.319518
  H 3.078636 -0.202740 0.991615
  H 2.710276 -0.554705 -2.019747
  H 5.202390 -0.403188 -0.201272
  H 4.844743 -0.737284 -3.219392
  H 7.378332 0.111813 -1.878134
  H 6.913236 -2.576085 -3.242496
  H 9.441210 -1.050510 -2.381748
  H 9.302493 -1.927012 -3.908844
  H 9.265011 -2.809475 -2.390378
 20
 6.276017
  C 1.060253 -0.271709 0.105381
  C 2.550741 -0.372762 0.039009
  C 3.243486 -0.429465 -1.098911
  C 4.680961 -0.517624 -1.162124
  C 5.381628 -0.511231 -2.298324
  C 6.841178 -0.648989 -2.346092
  C 7.452644 -1.738291 -2.787351
  C 8.931341 -1.929458 -2.831919
  H 0.702805 -0.415822 1.121401
  H 0.593254 -1.015201 -0.539333
  H 0.730568 0.710334 -0.235508
  H 3.078921 -0.391310 0.983247
  H 2.720341 -0.414727 -2.047577
  H 5.201525 -0.576828 -0.214709
  H 4.864976 -0.471854 -3.250464
  H 7.420255 0.182274 -1.959769
  H 6.855687 -2.570395 -3.138415
  H 9.447749 -1.081554 -2.388746
  H 9.265385 -2.042821 -3.863928
  H 9.212111 -2.834658 -2.294751
 20
 5.373201
  C 1.042273 -0.260885 0.095879
  C 2.533641 -0.343507 0.044725
  C 3.236429 -0.438022 -1.084827
  C 4.674576 -0.506918 -1.134071
  C 5.381530 -0.579489 -2.265742
  C 6.837589 -0.702067 -2.296265
  C 7.463311 -1.743881 -2.827468
  C 8.944063 -1.929080 -2.859165
  H 0.677545 -0.392391 1.110667
  H 0.590776 -1.019939 -0.540414
  H 0.703650 0.711813 -0.263747
  H 3.053840 -0.313404 0.991962
  H 2.720584 -0.471935 -2.036164
  H 5.190430 -0.495489 -0.181100
  H 4.868179 -0.621237 -3.219561
  H 7.403768 0.088106 -1.819584
  H 6.874042 -2.542758 -3.258434
  H 9.450371 -1.116750 -2.341003
  H 9.297743 -1.961340 -3.891455
  H 9.218228 -2.874318 -2.388700
 20
 4.126252
  C 1.031427 -0.224522 0.100365
  C 2.523153 -0.304529 0.048783
  C 3.223594 -0.448073 -1.077509
  C 4.660659 -0.511003 -1.127831
  C 5.370979 -0.673649 -2.249645
  C 6.822947 -0.775087 -2.256556
  C 7.487457 -1.740769 -2.881038
  C 8.968557 -1.892879 -2.882102
  H 0.667777 -0.343902 1.118054
  H 0.580094 -0.992274 -0.526952
  H 0.690895 0.743931 -0.270216
  H 3.046166 -0.227756 0.992795
  H 2.704711 -0.528412 -2.025465
  H 5.183470 -0.430391 -0.181853
  H 4.863178 -0.803492 -3.198400
  H 7.362824 -0.036835 -1.672428
  H 6.931992 -2.506096 -3.405659
  H 9.440591 -1.120276 -2.280899
  H 9.352456 -1.828630 -3.900564
  H 9.249641 -2.868847 -2.487347
