 16
 0.000000
  H 1.441845 0.116535 0.344542
  C 2.524423 0.114647 0.338067
  C 3.203578 0.596429 1.532742
  H 2.501107 0.905163 2.301175
  C 3.144687 -0.345683 -0.806719
  C 4.538947 -0.413438 -0.976006
  C 5.179523 -0.868742 -2.112365
  C 4.571658 -1.359902 -3.340856
  H 3.485309 -1.359600 -3.343533
  H 6.265160 -0.865302 -2.101804
  H 3.865414 1.431406 1.290323
  H 3.867182 -0.172286 1.936113
  H 2.511369 -0.672151 -1.618502
  H 5.162711 -0.086003 -0.157794
  H 4.945622 -2.368118 -3.546633
  H 4.947657 -0.773145 -4.185250
 16
 4.909372
  H 1.400342 0.140808 0.405547
  C 2.482995 0.126653 0.368392
  C 3.211316 0.602017 1.546263
  H 2.542816 0.920567 2.338877
  C 3.073800 -0.345011 -0.804305
  C 4.452544 -0.424284 -1.002499
  C 5.159708 -0.858220 -2.085987
  C 4.612253 -1.361009 -3.344120
  H 3.530608 -1.373626 -3.379392
  H 6.240397 -0.840526 -2.039729
  H 3.879517 1.425625 1.279349
  H 3.881593 -0.175079 1.924199
  H 2.426263 -0.667809 -1.606729
  H 5.214120 -0.151075 -0.319265
  H 5.004411 -2.362684 -3.538166
  H 5.006588 -0.770800 -4.175340
 16
 15.581302
  H 1.381251 0.157709 0.446961
  C 2.459880 0.133341 0.384898
  C 3.223332 0.598102 1.536908
  H 2.583761 0.924382 2.348586
  C 3.016215 -0.339357 -0.790269
  C 4.384691 -0.427808 -1.011823
  C 5.135301 -0.851276 -2.069233
  C 4.648392 -1.353909 -3.326288
  H 3.565670 -1.379032 -3.392660
  H 6.201320 -0.823284 -1.997527
  H 3.894998 1.409512 1.248394
  H 3.896808 -0.185378 1.890835
  H 2.355442 -0.658348 -1.582998
  H 5.244042 -0.207469 -0.461571
  H 5.057802 -2.352131 -3.505573
  H 5.060013 -0.756431 -4.144703
 16
 29.316103
  H 1.356456 0.170637 0.478859
  C 2.433472 0.140538 0.402548
  C 3.227084 0.604365 1.552464
  H 2.605692 0.935333 2.376062
  C 2.969757 -0.333456 -0.775398
  C 4.334483 -0.425210 -1.005609
  C 5.131401 -0.843695 -2.050757
  C 4.676485 -1.360109 -3.342044
  H 3.589684 -1.394389 -3.431794
  H 6.206801 -0.812565 -1.970546
  H 3.901691 1.410589 1.251235
  H 3.903341 -0.184375 1.893482
  H 2.301135 -0.650008 -1.560970
  H 5.277290 -0.250915 -0.570931
  H 5.100613 -2.363003 -3.514263
  H 5.103116 -0.754969 -4.158797
 16
 43.783442
  H 1.352247 0.183105 0.509424
  C 2.425884 0.148661 0.423271
  C 3.220211 0.603614 1.549643
  H 2.610122 0.935987 2.373710
  C 2.953976 -0.328938 -0.760918
  C 4.318167 -0.420779 -0.992683
  C 5.137122 -0.837735 -2.036363
  C 4.691057 -1.358667 -3.341355
  H 3.610741 -1.394654 -3.437459
  H 6.221278 -0.813971 -1.971108
  H 3.891188 1.402404 1.241117
  H 3.891912 -0.184751 1.882228
  H 2.275050 -0.644882 -1.541598
  H 5.311616 -0.290398 -0.668397
  H 5.115882 -2.359762 -3.511087
  H 5.119262 -0.754478 -4.155487
 16
 56.762477
  H 1.340326 0.181838 0.506419
  C 2.420744 0.144711 0.423715
  C 3.215398 0.615365 1.552708
  H 2.597684 0.967872 2.370804
  C 2.952571 -0.352355 -0.746421
  C 4.317084 -0.433745 -0.981035
  C 5.153078 -0.832354 -2.030604
  C 4.697462 -1.336371 -3.349754
  H 3.611768 -1.350376 -3.448506
  H 6.238104 -0.847868 -1.970844
  H 3.893696 1.410642 1.230296
  H 3.881469 -0.174854 1.908897
  H 2.273131 -0.700762 -1.515287
  H 5.356996 -0.331028 -0.744974
  H 5.099140 -2.336547 -3.506871
  H 5.131384 -0.748342 -4.158747
 16
 62.496659
  H 1.351359 0.153807 0.501996
  C 2.427215 0.119722 0.410578
  C 3.225704 0.650233 1.526291
  H 2.596164 1.041545 2.318784
  C 2.954662 -0.426215 -0.715177
  C 4.310537 -0.519866 -1.004216
  C 5.182545 -0.849742 -1.992310
  C 4.697306 -1.254831 -3.366450
  H 3.613246 -1.192648 -3.440170
  H 6.265536 -0.959721 -1.927403
  H 3.881615 1.436349 1.158222
  H 3.879856 -0.110388 1.943795
  H 2.268036 -0.855818 -1.456768
  H 5.376207 -0.407530 -0.771843
  H 5.039925 -2.288621 -3.499075
  H 5.145075 -0.669900 -4.177247
 16
 64.420819
  H 1.345522 0.116554 0.560620
  C 2.414551 0.090134 0.433338
  C 3.242513 0.708509 1.484413
  H 2.626182 1.150870 2.265820
  C 2.912935 -0.525299 -0.670217
  C 4.252953 -0.624503 -1.009200
  C 5.181082 -0.871856 -1.968581
  C 4.731456 -1.180264 -3.395823
  H 3.662082 -1.043148 -3.504118
  H 6.254622 -1.074527 -1.894686
  H 3.880690 1.483449 1.049468
  H 3.908275 -0.029203 1.942714
  H 2.223475 -1.022799 -1.344652
  H 5.356846 -0.514254 -0.764675
  H 5.000036 -2.220857 -3.575372
  H 5.249928 -0.566259 -4.131229
 16
 67.307796
  H 1.350316 0.085397 0.596331
  C 2.412752 0.066999 0.443780
  C 3.260030 0.750233 1.443183
  H 2.658133 1.225326 2.213221
  C 2.890271 -0.595967 -0.640713
  C 4.219828 -0.697208 -1.011954
  C 5.181103 -0.887206 -1.941990
  C 4.752410 -1.116295 -3.398639
  H 3.689497 -0.925441 -3.524847
  H 6.242853 -1.156137 -1.869000
  H 3.877280 1.505157 0.963089
  H 3.935773 0.045101 1.919648
  H 2.185919 -1.132406 -1.281020
  H 5.342780 -0.595931 -0.763803
  H 4.973279 -2.157815 -3.617243
  H 5.318647 -0.493229 -4.090619
 16
 68.436562
  H 1.351132 0.046141 0.600705
  C 2.419296 0.039753 0.440483
  C 3.261161 0.794484 1.387816
  H 2.659831 1.301111 2.132804
  C 2.902574 -0.675943 -0.613757
  C 4.223275 -0.773402 -0.988637
  C 5.204641 -0.918169 -1.921628
  C 4.748554 -1.033943 -3.379171
  H 3.703203 -0.763632 -3.482336
  H 6.246418 -1.269402 -1.851849
  H 3.864589 1.533898 0.859142
  H 3.958068 0.126727 1.899811
  H 2.200237 -1.244340 -1.224276
  H 5.363697 -0.682100 -0.763977
  H 4.891545 -2.072953 -3.650063
  H 5.351702 -0.415248 -4.054485
 16
 69.120669
  H 1.359720 0.003597 0.602869
  C 2.426283 0.013211 0.434315
  C 3.260197 0.833450 1.331712
  H 2.652564 1.364795 2.064321
  C 2.920215 -0.741251 -0.592565
  C 4.231998 -0.835504 -0.971346
  C 5.232199 -0.947587 -1.904831
  C 4.742941 -0.954583 -3.354251
  H 3.722949 -0.593541 -3.426554
  H 6.244923 -1.375536 -1.846657
  H 3.837814 1.558634 0.763002
  H 3.978773 0.208356 1.863250
  H 2.226531 -1.335862 -1.182010
  H 5.392926 -0.730095 -0.770965
  H 4.790425 -1.996399 -3.674631
  H 5.381029 -0.365249 -4.011694
 16
 68.427607
  H 1.372097 -0.039487 0.631251
  C 2.426672 -0.008597 0.438265
  C 3.265029 0.862429 1.285659
  H 2.670650 1.393770 2.011379
  C 2.918389 -0.787113 -0.579954
  C 4.211803 -0.871503 -0.989785
  C 5.246819 -0.964767 -1.890311
  C 4.753297 -0.893467 -3.336904
  H 3.766920 -0.449083 -3.399713
  H 6.224544 -1.455718 -1.823172
  H 3.811869 1.594969 0.673757
  H 4.015069 0.273482 1.815326
  H 2.223393 -1.406703 -1.145915
  H 5.386540 -0.707817 -0.788052
  H 4.712020 -1.928178 -3.680475
  H 5.432939 -0.346210 -3.982401
 16
 64.373035
  H 1.381427 -0.091762 0.682733
  C 2.431276 -0.031124 0.445706
  C 3.273355 0.899459 1.223116
  H 2.683600 1.455345 1.943235
  C 2.916088 -0.840853 -0.557256
  C 4.179078 -0.919322 -1.019917
  C 5.261183 -0.992739 -1.882740
  C 4.775321 -0.814142 -3.319292
  H 3.837675 -0.275059 -3.361984
  H 6.173637 -1.589318 -1.795712
  H 3.779710 1.608455 0.567903
  H 4.051801 0.354876 1.759928
  H 2.221126 -1.500758 -1.072445
  H 5.377548 -0.654230 -0.815971
  H 4.628814 -1.824412 -3.696539
  H 5.505941 -0.310304 -3.955293
