 13
 0.000000
  C 0.977213 0.140952 0.407802
  C 2.418658 0.114244 0.325767
  H 3.007493 0.453234 1.169516
  C 3.072930 -0.343262 -0.804351
  C 4.476254 -0.386817 -0.915962
  C 5.097083 -0.843820 -2.039122
  H 4.528323 -1.189403 -2.886983
  H 6.170055 -0.874759 -2.115888
  H 0.601922 0.504813 1.358079
  H 0.578470 -0.856556 0.185026
  H 0.559361 0.733526 -0.416649
  H 2.473218 -0.686465 -1.639799
  H 5.065626 -0.043826 -0.075890
 13
 1.535794
  C 0.998816 0.133226 0.373569
  C 2.440422 0.154537 0.376738
  H 2.999948 0.497284 1.242912
  C 3.087611 -0.325203 -0.744872
  C 4.481665 -0.370488 -0.911018
  C 5.057077 -0.864302 -2.040634
  H 4.457592 -1.240071 -2.854721
  H 6.126847 -0.897040 -2.158344
  H 0.532024 0.383699 1.326801
  H 0.705370 -0.849751 -0.010075
  H 0.604450 0.795980 -0.416043
  H 2.421193 -0.699578 -1.525047
  H 5.101948 0.002895 -0.107709
 13
 5.356039
  C 1.019723 0.120164 0.342273
  C 2.454807 0.193902 0.420418
  H 2.984834 0.540418 1.303719
  C 3.099940 -0.303950 -0.696072
  C 4.479307 -0.355413 -0.906751
  C 5.018007 -0.887818 -2.043848
  H 4.390662 -1.291522 -2.822583
  H 6.082351 -0.922265 -2.198862
  H 0.477533 0.254717 1.273530
  H 0.847142 -0.830057 -0.194977
  H 0.639264 0.857147 -0.394719
  H 2.383148 -0.704524 -1.405794
  H 5.123246 0.042754 -0.136715
 13
 11.045839
  C 1.030264 0.106451 0.315909
  C 2.461705 0.230522 0.446084
  H 2.965867 0.595415 1.333402
  C 3.108122 -0.286836 -0.661512
  C 4.487063 -0.349643 -0.907169
  C 4.992748 -0.910471 -2.043870
  H 4.346299 -1.331041 -2.789271
  H 6.047289 -0.949032 -2.227632
  H 0.444122 0.127989 1.224726
  H 0.966094 -0.790926 -0.348273
  H 0.645081 0.897766 -0.342662
  H 2.336205 -0.703754 -1.320269
  H 5.152173 0.062684 -0.162575
 13
 18.601554
  C 1.039150 0.090556 0.295470
  C 2.463299 0.261980 0.458518
  H 2.944504 0.661766 1.338721
  C 3.115979 -0.272002 -0.639103
  C 4.494291 -0.351748 -0.905497
  C 4.975554 -0.930046 -2.040034
  H 4.308641 -1.366658 -2.770754
  H 6.030653 -0.970872 -2.245562
  H 0.438834 0.005336 1.183677
  H 1.068800 -0.741955 -0.469845
  H 0.623235 0.927058 -0.285800
  H 2.286865 -0.693944 -1.256610
  H 5.173737 0.060207 -0.176405
 13
 28.197754
  C 1.049823 0.076886 0.278914
  C 2.464657 0.288520 0.462482
  H 2.925664 0.721105 1.336264
  C 3.125037 -0.259264 -0.627554
  C 4.492486 -0.360704 -0.902997
  C 4.956233 -0.945524 -2.041763
  H 4.283120 -1.381211 -2.756642
  H 6.017449 -0.990746 -2.263645
  H 0.445156 -0.085184 1.161510
  H 1.161029 -0.706406 -0.554215
  H 0.592528 0.930221 -0.259114
  H 2.238226 -0.672962 -1.212543
  H 5.189609 0.042407 -0.170041
 13
 38.605093
  C 1.052431 0.076034 0.277737
  C 2.461480 0.310966 0.462749
  H 2.908860 0.760048 1.328302
  C 3.127541 -0.238911 -0.615856
  C 4.498390 -0.368862 -0.902137
  C 4.951868 -0.952780 -2.042049
  H 4.271511 -1.390698 -2.758947
  H 5.999212 -1.002345 -2.265993
  H 0.456291 -0.136439 1.150644
  H 1.234214 -0.690499 -0.616789
  H 0.566351 0.908588 -0.246044
  H 2.194878 -0.650953 -1.184457
  H 5.193659 0.008381 -0.175487
 13
 48.123289
  C 1.053729 0.075442 0.283233
  C 2.461799 0.332226 0.457995
  H 2.900891 0.807732 1.317163
  C 3.134127 -0.216587 -0.606485
  C 4.496431 -0.382335 -0.902297
  C 4.940252 -0.958470 -2.044401
  H 4.257406 -1.386983 -2.767395
  H 5.986529 -1.013902 -2.270397
  H 0.475262 -0.180274 1.155899
  H 1.285692 -0.685266 -0.672151
  H 0.533450 0.881968 -0.251738
  H 2.155286 -0.642123 -1.180574
  H 5.208507 -0.031903 -0.152311
 13
 56.275650
  C 1.052803 0.080373 0.295362
  C 2.459809 0.353392 0.451931
  H 2.888535 0.858407 1.299467
  C 3.142407 -0.194372 -0.588251
  C 4.495202 -0.397191 -0.901036
  C 4.930621 -0.959920 -2.047908
  H 4.252181 -1.364942 -2.774574
  H 5.988948 -1.030392 -2.274380
  H 0.492443 -0.208607 1.173285
  H 1.321239 -0.697621 -0.722236
  H 0.506991 0.850699 -0.257840
  H 2.126408 -0.643199 -1.191853
  H 5.203099 -0.089692 -0.147108
 13
 62.611504
  C 1.046417 0.089967 0.312174
  C 2.456445 0.374423 0.440908
  H 2.875986 0.910935 1.274346
  C 3.157263 -0.178785 -0.572311
  C 4.500891 -0.412374 -0.897733
  C 4.926346 -0.955222 -2.054466
  H 4.241632 -1.329964 -2.798099
  H 5.976608 -1.052043 -2.272361
  H 0.509174 -0.221382 1.195037
  H 1.340506 -0.731430 -0.772176
  H 0.475715 0.821210 -0.262684
  H 2.107237 -0.665989 -1.216627
  H 5.216130 -0.149519 -0.125412
 13
 68.804195
  C 1.036782 0.113919 0.328675
  C 2.452895 0.376119 0.432979
  H 2.871007 0.932703 1.255668
  C 3.172782 -0.177531 -0.552769
  C 4.505959 -0.430230 -0.892669
  C 4.922577 -0.958977 -2.056856
  H 4.235438 -1.282028 -2.817225
  H 5.974762 -1.056927 -2.282398
  H 0.507626 -0.195365 1.221370
  H 1.343364 -0.784772 -0.823710
  H 0.461294 0.804745 -0.279867
  H 2.084972 -0.730337 -1.240548
  H 5.224192 -0.188790 -0.121431
 13
 74.293998
  C 1.030011 0.145883 0.352391
  C 2.443602 0.371749 0.422655
  H 2.865984 0.940056 1.238978
  C 3.188328 -0.176500 -0.533739
  C 4.508919 -0.445026 -0.889315
  C 4.917237 -0.956337 -2.062764
  H 4.225463 -1.233928 -2.836856
  H 5.967094 -1.062609 -2.290881
  H 0.507557 -0.142076 1.256699
  H 1.344413 -0.860553 -0.888806
  H 0.450742 0.783355 -0.302754
  H 2.067261 -0.805813 -1.284132
  H 5.232888 -0.227678 -0.115381
 13
 78.180721
  C 1.022068 0.183582 0.382578
  C 2.425988 0.357075 0.417868
  H 2.857495 0.925461 1.236258
  C 3.205134 -0.168315 -0.516422
  C 4.510301 -0.440187 -0.896130
  C 4.907595 -0.930681 -2.081839
  H 4.204716 -1.199332 -2.854962
  H 5.945278 -1.094145 -2.294595
  H 0.501476 -0.052567 1.299695
  H 1.358135 -0.962774 -0.973266
  H 0.443996 0.748862 -0.332696
  H 2.070444 -0.890070 -1.351961
  H 5.245326 -0.265612 -0.110467
 13
 80.897469
  C 1.014130 0.210452 0.403633
  C 2.413505 0.343992 0.408238
  H 2.856957 0.911668 1.224928
  C 3.216347 -0.175111 -0.511083
  C 4.510092 -0.453057 -0.902551
  C 4.904134 -0.937631 -2.091986
  H 4.199450 -1.184827 -2.869070
  H 5.942048 -1.107693 -2.305920
  H 0.501083 0.025356 1.338701
  H 1.349357 -1.070859 -1.068191
  H 0.436082 0.732939 -0.339451
  H 2.052965 -0.987395 -1.437021
  H 5.248284 -0.291051 -0.118215
