 13
 0.000000
  C 0.958536 -0.018298 -0.006874
  C 2.454956 0.003207 0.013915
  C 3.167475 0.814231 0.797768
  C 4.609124 0.833228 0.816127
  C 5.321766 1.642771 1.598556
  H 6.395529 1.651675 1.607162
  H 0.598583 -0.756981 -0.720807
  H 0.561885 0.952898 -0.299653
  H 0.561884 -0.277831 0.973730
  H 2.958213 -0.685076 -0.651317
  H 2.657086 1.500632 1.461181
  H 5.113837 0.144645 0.150613
  H 4.822613 2.331045 2.263773
 13
 2.621300
  C 0.970403 -0.025753 0.015449
  C 2.464917 -0.065312 0.070063
  C 3.170344 0.892583 0.671432
  C 4.613573 0.968223 0.706773
  C 5.305358 1.551013 1.679516
  H 6.380319 1.603106 1.664268
  H 0.571074 -0.912375 -0.461566
  H 0.641163 0.849155 -0.543929
  H 0.542859 0.043251 1.015891
  H 2.957878 -0.849808 -0.488225
  H 2.605946 1.531136 1.338626
  H 5.127226 0.539800 -0.145093
  H 4.815019 1.988657 2.533764
 13
 7.597293
  C 0.977395 -0.042028 0.020906
  C 2.472985 0.006635 0.036979
  C 3.152158 1.020854 0.581263
  C 4.600551 1.029185 0.657029
  C 5.287646 1.480514 1.701054
  H 6.366105 1.462394 1.728664
  H 0.623351 -1.034137 -0.225610
  H 0.596135 0.659244 -0.713153
  H 0.562250 0.240065 0.990536
  H 2.987299 -0.794005 -0.467357
  H 2.632107 1.508544 1.395033
  H 5.121651 0.702068 -0.231960
  H 4.791007 1.845588 2.590698
 13
 24.185011
  C 0.995300 -0.018411 -0.004385
  C 2.475574 -0.039849 0.150496
  C 3.123167 1.089331 0.560800
  C 4.576204 1.097341 0.619903
  C 5.281290 1.479340 1.677620
  H 6.357042 1.528481 1.658093
  H 0.619803 -1.000206 -0.228688
  H 0.725884 0.661789 -0.804518
  H 0.501681 0.334251 0.906472
  H 2.997012 -0.874080 -0.314824
  H 2.616898 1.314687 1.497024
  H 5.084938 0.846066 -0.305599
  H 4.809173 1.715733 2.617797
 13
 54.587725
  C 1.002678 -0.000862 -0.014421
  C 2.474369 0.032903 0.177552
  C 3.124124 1.218344 0.499968
  C 4.571954 1.234240 0.583354
  C 5.288258 1.389785 1.690899
  H 6.361654 1.456258 1.671195
  H 0.640546 -1.015730 0.020299
  H 0.756080 0.435093 -0.987792
  H 0.475352 0.577604 0.746986
  H 2.990799 -0.890397 -0.075290
  H 2.577508 1.046820 1.453649
  H 5.066329 1.247984 -0.381368
  H 4.825336 1.409276 2.664804
 13
 74.963591
  C 0.984976 0.029083 -0.044895
  C 2.451918 0.072689 0.297103
  C 3.141067 1.275290 0.474251
  C 4.575351 1.309931 0.572082
  C 5.309232 1.367577 1.680580
  H 6.374209 1.512908 1.653359
  H 0.595296 -0.984677 0.010129
  H 0.852457 0.388622 -1.064527
  H 0.396201 0.672492 0.604182
  H 2.958184 -0.892307 0.155847
  H 2.559067 0.701775 1.426898
  H 5.052127 1.434222 -0.394732
  H 4.866721 1.264005 2.658909
 13
 70.985498
  C 0.990382 0.046467 -0.064469
  C 2.444180 0.077628 0.379602
  C 3.159560 1.294836 0.445329
  C 4.574381 1.344392 0.561889
  C 5.330064 1.364528 1.657974
  H 6.386199 1.542884 1.617432
  H 0.554948 -0.946298 0.036945
  H 0.936771 0.321262 -1.118836
  H 0.390021 0.759597 0.489166
  H 2.943325 -0.896695 0.291343
  H 2.479550 0.442306 1.494799
  H 5.018381 1.584838 -0.402530
  H 4.914037 1.172286 2.632102
 13
 66.426121
  C 1.010745 0.076434 -0.095684
  C 2.420012 0.073196 0.485007
  C 3.140892 1.318514 0.485696
  C 4.535398 1.381502 0.588625
  C 5.364729 1.385843 1.636675
  H 6.414375 1.590766 1.531862
  H 0.563679 -0.916378 -0.061059
  H 1.047400 0.388793 -1.136899
  H 0.371534 0.773677 0.438210
  H 2.950551 -0.871904 0.306742
  H 2.347320 0.161674 1.602055
  H 4.925743 1.575393 -0.410584
  H 4.998399 1.233131 2.638776
 13
 68.391783
  C 1.036754 0.132621 -0.170325
  C 2.335738 -0.100731 0.606536
  C 3.223499 1.021119 0.636833
  C 4.547537 1.353344 0.647266
  C 5.490460 1.439179 1.605534
  H 6.425662 1.935870 1.425010
  H 0.484868 -0.793700 -0.293711
  H 1.263512 0.530143 -1.156672
  H 0.401283 0.849155 0.343077
  H 2.760602 -1.094528 0.394131
  H 2.114913 -0.076348 1.700147
  H 4.763981 1.787799 -0.331756
  H 5.271099 1.162078 2.621848
 13
 70.510474
  C 1.051655 0.170986 -0.171580
  C 2.308718 -0.141876 0.653810
  C 3.286367 0.910057 0.605607
  C 4.550880 1.351241 0.602949
  C 5.498571 1.406521 1.595041
  H 6.347593 2.058833 1.494503
  H 0.422533 -0.711382 -0.255152
  H 1.332363 0.494307 -1.169233
  H 0.472823 0.964058 0.294460
  H 2.692780 -1.143596 0.395611
  H 2.056871 -0.180399 1.717643
  H 4.770535 1.914343 -0.304088
  H 5.256559 1.080378 2.592325
 13
 62.964988
  C 1.051400 0.073512 -0.037297
  C 2.479312 0.087805 0.500651
  C 3.189992 1.347195 0.278088
  C 4.560178 1.486937 0.464838
  C 5.215766 1.233255 1.619355
  H 6.192857 1.639251 1.813798
  H 0.539455 -0.842121 0.252539
  H 1.062701 0.130612 -1.123007
  H 0.494653 0.926015 0.343279
  H 3.028220 -0.806403 0.174590
  H 2.452624 0.047576 1.600322
  H 5.062535 2.093950 -0.284472
  H 4.718554 0.755889 2.449212
