13

C 1.007279 -0.071766 0.047171
C 2.503578 -0.082253 0.026586
C 3.2199 -0.594897 -0.979822
C 4.657444 -0.605534 -1.000702
C 5.377524 -1.121235 -2.013108
H 6.447408256262882 -1.1283791810449375 -2.0271307985087588
H 0.644399 0.394335 0.962199
H 0.612102 -1.086655 0.008238
H 0.612102 0.493455 -0.796656
H 3.003345 0.353288 0.881626
H 2.709114 -1.028396 -1.830844
H 5.161698 -0.169888 -0.14546
H 4.873747 -1.556958 -2.868505
