 13
 0.000000
  C 1.007429 -0.070226 0.050195
  C 2.503604 -0.083737 0.023673
  C 3.217515 -0.594995 -0.980014
  C 4.660343 -0.608541 -1.006605
  C 5.371216 -1.119451 -2.009606
  H 6.446223 -1.124175 -2.018878
  H 0.644122 0.395161 0.963817
  H 0.611852 -1.084147 0.007067
  H 0.611852 0.491031 -0.795314
  H 3.007552 0.350624 0.876395
  H 2.707282 -1.028302 -1.830662
  H 5.163591 -0.172670 -0.150920
  H 4.877060 -1.555455 -2.865555
 13
 10.970739
  C 1.002440 -0.079616 0.035127
  C 2.497459 -0.083347 0.011576
  C 3.221715 -0.602897 -0.981188
  C 4.653058 -0.614593 -1.006662
  C 5.405102 -1.098233 -2.010257
  H 6.469219 -1.096785 -1.989390
  H 0.639122 0.410091 0.936111
  H 0.606132 -1.093589 0.017785
  H 0.605010 0.470913 -0.817355
  H 3.004419 0.357841 0.858666
  H 2.723112 -1.050689 -1.833250
  H 5.310965 -0.277755 -0.247595
  H 4.692728 -1.446035 -2.709603
 13
 39.686871
  C 1.004214 -0.078928 0.033901
  C 2.499675 -0.084384 0.016907
  C 3.224348 -0.587694 -0.986276
  C 4.646631 -0.589467 -1.008598
  C 5.424675 -1.104160 -2.017430
  H 6.480874 -1.101005 -2.017186
  H 0.616155 0.371512 0.942785
  H 0.620603 -1.096243 -0.049273
  H 0.621039 0.476493 -0.821805
  H 3.007861 0.346199 0.867958
  H 2.723388 -1.028126 -1.843231
  H 5.405582 -0.300424 -0.362585
  H 4.558807 -1.427686 -2.489670
 13
 57.771195
  C 1.001605 -0.076745 0.031809
  C 2.490860 -0.124051 0.025121
  C 3.208020 -0.614993 -1.002436
  C 4.630682 -0.579550 -1.023423
  C 5.450523 -1.054156 -2.073274
  H 6.496808 -1.006430 -2.074028
  H 0.661352 0.418699 0.935712
  H 0.566725 -1.064328 -0.060719
  H 0.677027 0.527699 -0.816816
  H 3.000806 0.279359 0.875331
  H 2.695547 -1.059090 -1.843780
  H 5.366555 -0.280991 -0.359954
  H 4.590070 -1.568059 -2.345541
 13
 65.427681
  C 1.009340 -0.026646 -0.006784
  C 2.490733 -0.188599 0.045369
  C 3.185244 -0.677438 -0.983030
  C 4.591080 -0.518448 -1.084825
  C 5.405649 -1.025365 -2.124141
  H 6.430481 -0.790222 -2.201236
  H 0.671294 0.384335 0.947438
  H 0.500290 -0.982247 -0.140384
  H 0.729166 0.663618 -0.797229
  H 3.017961 0.237486 0.884049
  H 2.702173 -1.150497 -1.839947
  H 5.311612 -0.254851 -0.368746
  H 4.790309 -1.868825 -2.052877
 13
 72.356799
  C 0.994302 -0.008652 0.015788
  C 2.468738 -0.201932 0.029682
  C 3.181259 -0.596503 -1.043549
  C 4.598076 -0.543520 -1.155799
  C 5.373760 -1.093419 -2.207766
  H 6.434695 -0.793714 -2.260036
  H 0.652435 0.395187 0.958948
  H 0.495076 -0.967815 -0.134061
  H 0.687593 0.646413 -0.792125
  H 2.993667 0.110454 0.920671
  H 2.640570 -0.992909 -1.887844
  H 5.293116 -0.158679 -0.400400
  H 5.021422 -1.983923 -1.741504
 13
 79.742311
  C 1.012018 -0.031237 0.038044
  C 2.506915 -0.133459 -0.037289
  C 3.169301 -0.604358 -1.089183
  C 4.635277 -0.668017 -1.136957
  C 5.366926 -0.956989 -2.323924
  H 6.444464 -0.793037 -2.175815
  H 0.702474 0.496780 0.937836
  H 0.564729 -1.020169 0.056068
  H 0.616965 0.490574 -0.832865
  H 3.056231 0.212551 0.832572
  H 2.642670 -0.919365 -1.994741
  H 5.093167 -0.380492 -0.182000
  H 5.038545 -1.894381 -1.687342
 13
 83.282170
  C 1.032212 -0.022193 0.036791
  C 2.512542 -0.159762 -0.041425
  C 3.164659 -0.608287 -1.109509
  C 4.627438 -0.674931 -1.185081
  C 5.330059 -0.913914 -2.407490
  H 6.400463 -0.757851 -2.209825
  H 0.729846 0.495019 0.942423
  H 0.569239 -1.015518 0.061731
  H 0.632781 0.485114 -0.840068
  H 3.066442 0.092967 0.855841
  H 2.625023 -0.870301 -2.012807
  H 5.137306 -0.476914 -0.235127
  H 5.045103 -1.793360 -1.239239
