 32
 0.000000
  C 0.908957 0.046942 0.265658
  C 2.403138 0.059003 0.084597
  C 3.241949 -0.011626 1.354703
  C 2.524392 -0.088778 2.700647
  C 3.521325 -0.152543 3.851768
  C 2.999883 0.128458 -1.121712
  C 2.353543 0.205696 -2.494366
  C 0.841870 0.218180 -2.712742
  C 0.515269 0.301833 -4.201041
  C 4.458672 0.132241 -1.209550
  C 5.197326 0.194269 -2.317310
  O 6.557409 0.193995 -2.334252
  H 0.600724 -0.008362 1.304880
  H 0.465268 -0.821928 -0.217100
  H 0.466885 0.962034 -0.121127
  H 3.886824 0.873267 1.386452
  H 3.889282 -0.892665 1.286619
  H 1.892310 -0.979219 2.741300
  H 1.889883 0.789653 2.841429
  H 4.158098 -1.031651 3.767447
  H 2.993025 -0.207053 4.802002
  H 4.155663 0.732210 3.867249
  H 2.740108 -0.643381 -3.069554
  H 2.740336 1.113791 -2.970791
  H 0.389662 1.079525 -2.222260
  H 0.389448 -0.692540 -2.321789
  H 0.923215 1.211024 -4.639700
  H -0.563525 0.310150 -4.346451
  H 0.922977 -0.552618 -4.738769
  H 5.004671 0.079125 -0.277778
  H 4.819692 0.251604 -3.325093
  H 6.887491 0.142402 -1.427516
 32
 -0.472275
  C 0.900218 -0.162210 0.274178
  C 2.388308 -0.068531 0.083420
  C 3.236817 -0.076444 1.346804
  C 2.515669 -0.044280 2.696190
  C 3.527495 0.054566 3.835525
  C 2.985888 0.032618 -1.121410
  C 2.346783 0.151502 -2.495452
  C 0.836423 0.218265 -2.711751
  C 0.539779 0.481483 -4.186853
  C 4.445116 0.049848 -1.212583
  C 5.186831 0.172899 -2.315197
  O 6.546378 0.159326 -2.326511
  H 0.652379 -0.487661 1.277046
  H 0.462276 -0.876145 -0.414251
  H 0.425550 0.804690 0.115709
  H 3.891449 0.799683 1.319817
  H 3.876605 -0.964653 1.339164
  H 1.926115 -0.953377 2.839248
  H 1.845512 0.817676 2.742885
  H 4.202193 -0.798969 3.824232
  H 3.018719 0.074682 4.796206
  H 4.121862 0.961335 3.745021
  H 2.726360 -0.682094 -3.095983
  H 2.761370 1.067535 -2.930437
  H 0.400630 1.021746 -2.119718
  H 0.362094 -0.722633 -2.433346
  H 0.974332 1.426370 -4.504333
  H -0.532953 0.524492 -4.357368
  H 0.953153 -0.309546 -4.808060
  H 4.995706 -0.071908 -0.290079
  H 4.810932 0.297738 -3.316058
  H 6.877564 0.046078 -1.426129
 32
 -0.781909
  C 0.936517 -0.389484 0.274675
  C 2.408685 -0.173493 0.071516
  C 3.247601 -0.116161 1.342009
  C 2.498616 0.020690 2.665240
  C 3.481715 0.222836 3.815489
  C 2.998751 -0.042873 -1.134917
  C 2.350027 0.102408 -2.502992
  C 0.845376 0.242226 -2.693584
  C 0.544052 0.645609 -4.133628
  C 4.453637 -0.000183 -1.228791
  C 5.192893 0.141392 -2.331752
  O 6.551638 0.126544 -2.347514
  H 0.762877 -0.974517 1.171764
  H 0.501641 -0.933186 -0.553192
  H 0.410521 0.554723 0.388114
  H 3.912279 0.747322 1.269420
  H 3.876613 -1.011535 1.405001
  H 1.908642 -0.874700 2.872265
  H 1.820639 0.875309 2.619980
  H 4.161965 -0.623786 3.891285
  H 2.949245 0.319130 4.760103
  H 4.073619 1.124417 3.663421
  H 2.692387 -0.731223 -3.123815
  H 2.791743 1.013347 -2.926007
  H 0.450832 1.001896 -2.025897
  H 0.336811 -0.697744 -2.497511
  H 1.006206 1.600256 -4.371403
  H -0.528007 0.737760 -4.286070
  H 0.925015 -0.099648 -4.826745
  H 5.003672 -0.142838 -0.311528
  H 4.814049 0.282075 -3.328887
  H 6.885511 -0.002684 -1.449443
 32
 -0.785862
  C 1.006293 -0.617886 0.266748
  C 2.440203 -0.234953 0.056920
  C 3.258983 -0.106780 1.330776
  C 2.465874 0.100756 2.623562
  C 3.408421 0.339217 3.798450
  C 3.022348 -0.096097 -1.151115
  C 2.356281 0.068358 -2.506788
  C 0.848906 0.284416 -2.655910
  C 0.533432 0.789148 -4.059907
  C 4.476606 -0.032845 -1.254424
  C 5.208837 0.089938 -2.363355
  O 6.568147 0.085298 -2.385863
  H 0.960240 -1.417725 1.004447
  H 0.561029 -0.993306 -0.643141
  H 0.411854 0.212352 0.641015
  H 3.925503 0.754102 1.228241
  H 3.885921 -0.995533 1.456373
  H 1.849417 -0.769472 2.845905
  H 1.807233 0.963638 2.514677
  H 4.068482 -0.516608 3.940711
  H 2.843943 0.491253 4.715643
  H 4.023966 1.220373 3.626182
  H 2.651493 -0.770582 -3.142573
  H 2.824458 0.963526 -2.930142
  H 0.503707 1.018314 -1.928992
  H 0.297966 -0.643243 -2.507871
  H 1.032469 1.735873 -4.251123
  H -0.537216 0.936949 -4.179085
  H 0.864949 0.071180 -4.806796
  H 5.031794 -0.163770 -0.333973
  H 4.821812 0.204722 -3.363968
  H 6.906924 -0.018394 -1.487325
 32
 1.225445
  C 1.069105 -0.748429 0.244127
  C 2.460471 -0.220972 0.051603
  C 3.255231 0.027613 1.320840
  C 2.440094 0.102305 2.610362
  C 3.350614 0.340344 3.810842
  C 3.040423 -0.126463 -1.162929
  C 2.357760 0.072802 -2.504675
  C 0.864626 0.370342 -2.607816
  C 0.527823 0.852163 -4.017095
  C 4.492900 -0.055317 -1.277669
  C 5.213723 0.000772 -2.399306
  O 6.572469 -0.013220 -2.438643
  H 1.134513 -1.630070 0.883028
  H 0.668879 -1.091997 -0.700858
  H 0.393915 -0.040986 0.719845
  H 3.782524 0.978907 1.204327
  H 4.016362 -0.751159 1.451974
  H 1.889182 -0.822807 2.766040
  H 1.717002 0.921616 2.543364
  H 4.057848 -0.473531 3.921389
  H 2.766744 0.411257 4.724984
  H 3.910861 1.264237 3.690964
  H 2.593320 -0.760627 -3.168127
  H 2.857835 0.956833 -2.917426
  H 0.593449 1.146155 -1.888030
  H 0.258391 -0.513123 -2.408994
  H 1.101370 1.740861 -4.270883
  H -0.530816 1.094353 -4.093120
  H 0.755616 0.077813 -4.749934
  H 5.054209 -0.125905 -0.347726
  H 4.813416 0.056140 -3.395400
  H 6.921423 -0.071612 -1.540049
 32
 6.487183
  C 1.157176 -0.949894 0.206017
  C 2.494885 -0.283212 0.045417
  C 3.247428 0.101382 1.298694
  C 2.410711 0.124905 2.575727
  C 3.269023 0.482908 3.784172
  C 3.065989 -0.222180 -1.178182
  C 2.373432 0.147885 -2.483374
  C 0.871940 0.411161 -2.542945
  C 0.499573 0.973297 -3.911346
  C 4.514698 -0.186605 -1.304446
  C 5.232660 -0.027197 -2.420955
  O 6.581007 -0.189508 -2.497418
  H 1.328642 -1.889459 0.739414
  H 0.827000 -1.261445 -0.780390
  H 0.413904 -0.379415 0.752185
  H 3.668140 1.097629 1.139180
  H 4.093584 -0.574166 1.468311
  H 1.952132 -0.851617 2.740944
  H 1.611047 0.862064 2.475520
  H 4.060869 -0.251894 3.923186
  H 2.664790 0.510581 4.687616
  H 3.729717 1.459538 3.652226
  H 2.622532 -0.578650 -3.259068
  H 2.853861 1.089055 -2.759578
  H 0.596165 1.130252 -1.771226
  H 0.292516 -0.492325 -2.386693
  H 1.029760 1.905953 -4.104372
  H -0.570351 1.169240 -3.963712
  H 0.756648 0.263908 -4.699807
  H 5.066144 -0.462606 -0.414956
  H 4.831669 0.231795 -3.386116
  H 6.934967 -0.370187 -1.616806
 32
 15.775770
  C 1.284591 -1.183153 0.129200
  C 2.581352 -0.431394 0.040585
  C 3.234136 0.135145 1.273854
  C 2.371128 0.065902 2.524701
  C 3.060375 0.735452 3.706379
  C 3.124269 -0.356062 -1.205743
  C 2.406146 0.145399 -2.450069
  C 0.915259 0.458179 -2.406071
  C 0.500288 1.211381 -3.667338
  C 4.560379 -0.372698 -1.380987
  C 5.250625 -0.202838 -2.515403
  O 6.608028 -0.245556 -2.606172
  H 1.498151 -2.164151 0.566421
  H 1.086615 -1.468116 -0.904036
  H 0.484300 -0.721502 0.695410
  H 3.495667 1.181087 1.066005
  H 4.178554 -0.380761 1.487577
  H 2.162445 -0.975648 2.767964
  H 1.418054 0.565852 2.337536
  H 4.010692 0.255337 3.919054
  H 2.439889 0.672173 4.596566
  H 3.249655 1.791494 3.493166
  H 2.598840 -0.512675 -3.303980
  H 2.909057 1.092216 -2.657941
  H 0.700605 1.074290 -1.534257
  H 0.312235 -0.445731 -2.336181
  H 1.054384 2.154242 -3.755242
  H -0.566275 1.439536 -3.644903
  H 0.705300 0.609595 -4.557676
  H 5.132170 -0.614994 -0.490939
  H 4.817602 0.031028 -3.469203
  H 6.979431 -0.514429 -1.754621
 32
 32.984945
  C 1.414987 -1.325515 0.050522
  C 2.629175 -0.440971 0.049205
  C 3.200043 0.244478 1.253238
  C 2.295567 0.152415 2.477185
  C 2.939126 0.798756 3.694755
  C 3.158321 -0.417387 -1.219460
  C 2.427130 0.204348 -2.408115
  C 0.940949 0.534663 -2.276344
  C 0.444903 1.241481 -3.530297
  C 4.586768 -0.486433 -1.412958
  C 5.266868 -0.299651 -2.553242
  O 6.617275 -0.413717 -2.677163
  H 1.676851 -2.343521 0.385641
  H 1.472901 -1.575371 -1.027381
  H 0.545451 -0.987773 0.581333
  H 3.374733 1.294782 0.999971
  H 4.178505 -0.184597 1.513516
  H 2.077385 -0.896155 2.692025
  H 1.350000 0.656419 2.262083
  H 3.878083 0.301638 3.940172
  H 2.281362 0.733639 4.557837
  H 3.149622 1.848979 3.502767
  H 2.571461 -0.393936 -3.315556
  H 2.949791 1.153076 -2.557838
  H 0.793818 1.179311 -1.409477
  H 0.352243 -0.361508 -2.120331
  H 1.002418 2.164008 -3.698865
  H -0.606848 1.489787 -3.439003
  H 0.574121 0.601711 -4.404894
  H 5.153928 -0.804213 -0.544583
  H 4.827206 0.022121 -3.478715
  H 6.991389 -0.720459 -1.840162
 32
 53.308409
  C 1.543832 -1.463533 0.003666
  C 2.675551 -0.515186 0.054102
  C 3.162237 0.263643 1.223897
  C 2.237075 0.172931 2.434925
  C 2.769720 0.987248 3.607773
  C 3.199448 -0.522980 -1.231651
  C 2.465752 0.227837 -2.351010
  C 0.987221 0.562394 -2.151559
  C 0.459490 1.376847 -3.328635
  C 4.630899 -0.576829 -1.463056
  C 5.291732 -0.358283 -2.617899
  O 6.623175 -0.578498 -2.800890
  H 1.828335 -2.519765 0.142991
  H 1.734806 -1.613120 -1.143441
  H 0.638768 -1.253786 0.561313
  H 3.296946 1.308215 0.926946
  H 4.158668 -0.095550 1.520295
  H 2.149061 -0.874558 2.735061
  H 1.240661 0.529266 2.164021
  H 3.756231 0.633611 3.902146
  H 2.106155 0.902597 4.465693
  H 2.849898 2.038739 3.339167
  H 2.535681 -0.355515 -3.277663
  H 3.019566 1.156953 -2.493101
  H 0.858808 1.126790 -1.225841
  H 0.396383 -0.348704 -2.066960
  H 1.013174 2.307156 -3.434467
  H -0.591379 1.617070 -3.185511
  H 0.557701 0.814638 -4.255478
  H 5.215954 -0.940142 -0.618918
  H 4.828669 -0.044840 -3.539097
  H 7.013827 -0.872266 -1.973158
 32
 71.441722
  C 1.572756 -1.508745 0.041558
  C 2.611423 -0.548616 0.057121
  C 3.105763 0.282789 1.190500
  C 2.228909 0.201090 2.436742
  C 2.793713 1.041526 3.574884
  C 3.149508 -0.584413 -1.280345
  C 2.446236 0.229376 -2.376411
  C 0.970559 0.542877 -2.152027
  C 0.425101 1.418992 -3.274066
  C 4.599966 -0.667158 -1.445933
  C 5.301722 -0.416163 -2.553158
  O 6.642399 -0.606303 -2.686418
  H 1.839348 -2.558029 0.041132
  H 2.054172 -1.576330 -1.332466
  H 0.662732 -1.352609 0.626932
  H 3.195653 1.326720 0.871890
  H 4.120317 -0.047983 1.444656
  H 2.152633 -0.841271 2.754091
  H 1.223902 0.550750 2.193616
  H 3.791305 0.700439 3.844065
  H 2.158987 0.970866 4.455104
  H 2.858149 2.087149 3.282348
  H 2.562347 -0.272430 -3.340192
  H 2.983986 1.181990 -2.440998
  H 0.850697 1.056533 -1.196643
  H 0.389374 -0.380584 -2.105423
  H 0.968381 2.359907 -3.325857
  H -0.626824 1.639826 -3.108436
  H 0.522443 0.915427 -4.234071
  H 5.135289 -1.068019 -0.589039
  H 4.878776 -0.034376 -3.468040
  H 7.000284 -0.952713 -1.860324
 32
 53.719246
  C 1.578358 -1.546723 0.092701
  C 2.563245 -0.607822 0.065352
  C 3.058141 0.266833 1.163538
  C 2.207520 0.225903 2.432753
  C 2.781697 1.129369 3.518467
  C 3.142269 -0.634517 -1.326512
  C 2.452203 0.249201 -2.398114
  C 0.975156 0.533483 -2.153199
  C 0.419713 1.482568 -3.208291
  C 4.608816 -0.748454 -1.459320
  C 5.331089 -0.466232 -2.533396
  O 6.665676 -0.659735 -2.645627
  H 1.821015 -2.586202 -0.049394
  H 2.370357 -1.507950 -1.501072
  H 0.705541 -1.472922 0.742193
  H 3.148656 1.305335 0.817601
  H 4.077956 -0.065220 1.398917
  H 2.164006 -0.802338 2.798975
  H 1.189369 0.542299 2.196985
  H 3.795328 0.825297 3.772953
  H 2.173943 1.080194 4.419155
  H 2.810772 2.162957 3.180569
  H 2.577058 -0.222535 -3.372954
  H 2.981489 1.208871 -2.439615
  H 0.846805 0.973743 -1.163618
  H 0.406617 -0.399280 -2.177797
  H 0.958388 2.427257 -3.197638
  H -0.632376 1.685081 -3.022468
  H 0.512287 1.046401 -4.201225
  H 5.114565 -1.182262 -0.601355
  H 4.929590 -0.050915 -3.441773
  H 7.009592 -0.999419 -1.815984
 32
 33.019602
  C 1.562012 -1.653949 0.180391
  C 2.492580 -0.694738 0.026491
  C 2.997561 0.269265 1.049501
  C 2.217234 0.272943 2.361380
  C 2.847192 1.211419 3.383494
  C 3.091156 -0.751442 -1.372982
  C 2.467161 0.278502 -2.345512
  C 0.973312 0.509030 -2.145398
  C 0.439406 1.537579 -3.134978
  C 4.569273 -0.846431 -1.431914
  C 5.346253 -0.462147 -2.436677
  O 6.699739 -0.590938 -2.473784
  H 1.766595 -2.681771 -0.067301
  H 2.383872 -1.592426 -1.615850
  H 0.732683 -1.578679 0.878031
  H 3.015707 1.287339 0.641195
  H 4.039665 -0.004688 1.242726
  H 2.183089 -0.741137 2.764453
  H 1.190041 0.587950 2.166818
  H 3.866820 0.904401 3.608303
  H 2.276905 1.207540 4.309585
  H 2.873587 2.230075 3.002358
  H 2.656098 -0.052247 -3.366797
  H 2.979577 1.239582 -2.215316
  H 0.791937 0.856499 -1.127222
  H 0.430816 -0.431055 -2.274595
  H 0.941095 2.493633 -3.000667
  H -0.628080 1.687779 -2.991706
  H 0.605699 1.206328 -4.158040
  H 5.031116 -1.340970 -0.582583
  H 4.984188 0.013854 -3.334311
  H 7.005136 -1.018489 -1.664263
 32
 14.038712
  C 1.598615 -1.759436 0.236147
  C 2.471988 -0.783168 0.001703
  C 2.951008 0.250064 0.974260
  C 2.202477 0.289030 2.303236
  C 2.799345 1.326404 3.246481
  C 3.084566 -0.794445 -1.390533
  C 2.483547 0.308145 -2.288128
  C 0.981938 0.504220 -2.103752
  C 0.458075 1.618325 -3.002104
  C 4.568818 -0.887371 -1.429471
  C 5.352694 -0.440166 -2.383810
  O 6.702106 -0.587041 -2.420601
  H 1.737699 -2.752340 -0.157738
  H 2.535236 -1.682595 -1.755224
  H 0.879184 -1.740632 1.043442
  H 2.923397 1.245830 0.518528
  H 4.005916 0.021515 1.156482
  H 2.245245 -0.696604 2.770766
  H 1.152789 0.526961 2.119848
  H 3.843089 1.099137 3.454143
  H 2.258693 1.342404 4.190001
  H 2.747705 2.319829 2.805465
  H 2.691258 0.053247 -3.328062
  H 2.987503 1.257707 -2.079277
  H 0.768497 0.748773 -1.062284
  H 0.458632 -0.426144 -2.337278
  H 0.949306 2.560564 -2.768650
  H -0.613123 1.747208 -2.865640
  H 0.644566 1.386097 -4.048577
  H 5.014496 -1.435769 -0.606376
  H 5.005282 0.105500 -3.245795
  H 6.995591 -1.074507 -1.640733
 32
 2.486927
  C 1.531661 -1.787696 0.296048
  C 2.429311 -0.855065 -0.020105
  C 2.958747 0.192084 0.917791
  C 2.253163 0.292926 2.267211
  C 2.895809 1.359031 3.146974
  C 3.028671 -0.860973 -1.409964
  C 2.470176 0.308820 -2.243069
  C 0.953060 0.451929 -2.147589
  C 0.452833 1.613492 -2.998347
  C 4.525616 -0.925166 -1.395737
  C 5.349673 -0.340718 -2.250622
  O 6.705394 -0.452034 -2.232923
  H 1.420504 -2.707235 -0.256883
  H 2.596079 -1.757739 -1.853409
  H 0.933931 -1.704091 1.208803
  H 2.935695 1.171608 0.429682
  H 4.014403 -0.046663 1.084367
  H 2.299952 -0.671780 2.776196
  H 1.201018 0.540117 2.110066
  H 3.942747 1.124746 3.329080
  H 2.387513 1.421400 4.106469
  H 2.842780 2.334494 2.667690
  H 2.741429 0.142607 -3.287797
  H 2.940918 1.242312 -1.924585
  H 0.661499 0.612385 -1.108504
  H 0.479826 -0.473984 -2.482704
  H 0.894434 2.549936 -2.663626
  H -0.628984 1.700525 -2.928686
  H 0.718399 1.465586 -4.043236
  H 4.944785 -1.558078 -0.619429
  H 5.032259 0.303465 -3.054746
  H 6.972835 -1.035502 -1.511945
 32
 -2.044081
  C 1.613610 -1.863541 0.362211
  C 2.455008 -0.913550 -0.012093
  C 2.955348 0.185025 0.884153
  C 2.292531 0.275224 2.255526
  C 2.849336 1.445420 3.058093
  C 2.988408 -0.893313 -1.432820
  C 2.474574 0.323250 -2.216858
  C 0.953524 0.448383 -2.173596
  C 0.472713 1.671434 -2.944974
  C 4.486397 -1.003752 -1.417320
  C 5.338859 -0.339171 -2.175857
  O 6.690376 -0.481199 -2.142634
  H 1.303699 -2.641996 -0.314855
  H 2.572860 -1.786527 -1.918071
  H 1.173700 -1.901801 1.342643
  H 2.830696 1.141275 0.370361
  H 4.033129 0.043963 1.018998
  H 2.462045 -0.650905 2.807964
  H 1.215186 0.402808 2.130838
  H 3.920530 1.329750 3.210380
  H 2.369594 1.504404 4.032425
  H 2.678417 2.384464 2.535506
  H 2.785900 0.217297 -3.258241
  H 2.929114 1.236191 -1.828255
  H 0.618875 0.516769 -1.136945
  H 0.506709 -0.450556 -2.603942
  H 0.900775 2.579710 -2.526099
  H -0.610865 1.751152 -2.899612
  H 0.768318 1.605735 -3.990000
  H 4.874320 -1.730342 -0.710578
  H 5.053488 0.401327 -2.905086
  H 6.928960 -1.156186 -1.494795
