 32
 0.000000
  C 0.976221 0.137423 0.392971
  C 2.454013 0.139037 0.396453
  C 3.235639 0.609617 1.567787
  C 2.454346 1.098326 2.784805
  C 3.399836 1.544547 3.895495
  C 3.075154 -0.323445 -0.755457
  C 4.453051 -0.411320 -0.974380
  C 5.123091 -0.863652 -2.101643
  C 4.621539 -1.386299 -3.404214
  C 3.129631 -1.502892 -3.695488
  C 2.900971 -2.064776 -5.095890
  O 6.448357 -0.861732 -2.096972
  H 0.536623 0.506728 1.312591
  H 0.607225 -0.875602 0.225656
  H 0.606888 0.753150 -0.428520
  H 3.891690 1.422523 1.236020
  H 3.891933 -0.206742 1.890421
  H 1.816173 0.300465 3.169902
  H 1.815972 1.940779 2.511101
  H 4.035897 0.723704 4.220729
  H 2.831181 1.890027 4.755909
  H 4.035670 2.362469 3.562513
  H 2.419676 -0.641874 -1.548482
  H 5.074642 -0.080448 -0.150120
  H 5.074798 -2.376186 -3.531176
  H 5.075111 -0.758952 -4.180234
  H 2.655258 -0.521998 -3.641322
  H 2.654907 -2.174090 -2.978375
  H 3.337991 -1.417938 -5.853563
  H 1.834936 -2.144711 -5.295684
  H 3.337647 -3.056093 -5.196233
  H 6.824653 -0.526795 -1.261478
 32
 15.205825
  C 1.108356 0.078432 0.247403
  C 2.574892 0.119595 0.346914
  C 3.276892 0.604115 1.552073
  C 2.417738 1.075635 2.729233
  C 3.302383 1.540261 3.884483
  C 3.312479 -0.337967 -0.792743
  C 4.655792 -0.355909 -0.838715
  C 5.061759 -0.833195 -2.025410
  C 4.471007 -1.336508 -3.279277
  C 2.990020 -1.459207 -3.588542
  C 2.821595 -2.024172 -4.995472
  O 6.427891 -0.910699 -2.215353
  H 0.600571 0.435237 1.136478
  H 0.781998 -0.944752 0.037764
  H 0.780619 0.671513 -0.611682
  H 3.939072 1.432270 1.262053
  H 3.940628 -0.193458 1.915099
  H 1.780090 0.263273 3.082041
  H 1.778213 1.905266 2.423143
  H 3.938683 0.732270 4.238475
  H 2.689774 1.874139 4.718424
  H 3.936648 2.370132 3.581212
  H 2.690777 -0.668534 -1.615063
  H 5.314420 -0.038130 -0.049407
  H 4.919238 -2.325609 -3.416505
  H 4.920742 -0.718237 -4.062617
  H 2.500091 -0.485525 -3.563409
  H 2.498171 -2.143971 -2.897184
  H 3.278606 -1.372236 -5.736160
  H 1.766020 -2.119690 -5.236244
  H 3.276813 -3.008194 -5.079031
  H 6.940007 -0.600528 -1.438258
 32
 50.129651
  C 1.230886 0.022950 0.110783
  C 2.684899 0.105573 0.312986
  C 3.306589 0.606807 1.559719
  C 2.383522 1.058509 2.685664
  C 3.198780 1.540463 3.885584
  C 3.533381 -0.337550 -0.791653
  C 4.857817 -0.314943 -0.738751
  C 5.026472 -0.800914 -1.945731
  C 4.347630 -1.303942 -3.197303
  C 2.874220 -1.426695 -3.510696
  C 2.727635 -1.995034 -4.921425
  O 6.414389 -0.956308 -2.329987
  H 0.650634 0.365040 0.963999
  H 0.949016 -1.009720 -0.121904
  H 0.947063 0.606701 -0.771508
  H 3.974785 1.445222 1.300774
  H 3.976695 -0.177834 1.948992
  H 1.747676 0.232417 3.005051
  H 1.746529 1.876018 2.346509
  H 3.832272 0.745181 4.272067
  H 2.537066 1.861367 4.686586
  H 3.831005 2.383111 3.614845
  H 2.961499 -0.667018 -1.611005
  H 5.543177 -0.013843 0.010820
  H 4.814460 -2.285705 -3.327060
  H 4.807672 -0.689672 -3.977517
  H 2.380238 -0.450816 -3.498528
  H 2.371336 -2.119474 -2.828841
  H 3.193488 -1.342785 -5.657845
  H 1.674940 -2.093595 -5.175568
  H 3.187562 -2.978707 -4.997781
  H 7.017929 -0.670864 -1.616875
 32
 92.197389
  C 1.307896 -0.010819 0.034258
  C 2.746058 0.093052 0.285963
  C 3.320779 0.598349 1.537860
  C 2.352569 1.037167 2.633437
  C 3.117689 1.532281 3.858015
  C 3.673537 -0.350561 -0.820229
  C 4.993135 -0.292957 -0.683479
  C 5.000326 -0.781523 -1.893343
  C 4.336746 -1.286493 -3.150879
  C 2.829565 -1.394087 -3.431436
  C 2.636019 -1.957417 -4.836844
  O 6.485222 -0.988726 -2.403157
  H 0.704433 0.325577 0.871718
  H 1.043210 -1.042410 -0.201857
  H 1.040392 0.567798 -0.850712
  H 3.980405 1.440158 1.299034
  H 3.984903 -0.171059 1.947472
  H 1.717565 0.200714 2.930860
  H 1.713289 1.843488 2.269649
  H 3.749054 0.748343 4.266449
  H 2.427606 1.842965 4.634354
  H 3.744593 2.383473 3.608082
  H 3.049436 -0.677199 -1.631710
  H 5.700903 0.000816 0.047827
  H 4.772374 -2.263928 -3.298350
  H 4.777830 -0.686874 -3.934013
  H 2.342001 -0.414614 -3.404695
  H 2.335374 -2.080425 -2.736933
  H 3.086912 -1.310568 -5.581490
  H 1.581447 -2.043917 -5.061184
  H 3.081676 -2.942340 -4.926717
  H 7.114200 -0.720272 -1.733232
 32
 131.479385
  C 1.284451 -0.003774 0.053614
  C 2.726436 0.093804 0.290037
  C 3.317979 0.597221 1.535781
  C 2.356238 1.037684 2.639149
  C 3.130668 1.532612 3.857980
  C 3.640440 -0.353055 -0.826336
  C 4.993888 -0.278512 -0.652028
  C 4.839167 -0.765445 -1.854559
  C 4.313025 -1.282095 -3.136847
  C 2.830626 -1.399978 -3.451094
  C 2.670448 -1.968804 -4.867441
  O 6.559006 -1.020932 -2.479168
  H 0.700059 0.336426 0.899828
  H 1.005440 -1.036043 -0.174480
  H 1.002331 0.580221 -0.826580
  H 3.977424 1.441860 1.293908
  H 3.984503 -0.172209 1.948972
  H 1.722889 0.201245 2.941988
  H 1.714077 1.844988 2.281136
  H 3.764905 0.749463 4.263464
  H 2.445140 1.844301 4.640045
  H 3.755955 2.384389 3.603133
  H 2.950500 -0.665016 -1.604100
  H 5.735347 0.008253 0.062965
  H 4.787027 -2.260383 -3.260673
  H 4.792740 -0.671025 -3.907481
  H 2.337459 -0.420574 -3.434888
  H 2.325367 -2.089131 -2.763641
  H 3.134087 -1.321443 -5.602143
  H 1.619188 -2.062499 -5.116645
  H 3.124293 -2.949806 -4.946529
  H 7.181321 -0.748608 -1.802293
 32
 138.193622
  C 1.126371 0.103634 0.176472
  C 2.604840 0.111502 0.315289
  C 3.288871 0.586522 1.546195
  C 2.399801 1.075188 2.685565
  C 3.250167 1.531478 3.868337
  C 3.358572 -0.346415 -0.755234
  C 4.867154 -0.375059 -0.641138
  C 4.495040 -0.725177 -1.805496
  C 4.276065 -1.256941 -3.118338
  C 2.842676 -1.477557 -3.580258
  C 2.819960 -2.053537 -4.995451
  O 6.877129 -0.964948 -2.600648
  H 0.632489 0.482155 1.059067
  H 0.761849 -0.906905 -0.010995
  H 0.811335 0.692980 -0.684278
  H 3.970186 1.397490 1.270808
  H 3.921626 -0.215177 1.939786
  H 1.734647 0.276155 3.014483
  H 1.787430 1.910359 2.342510
  H 3.856545 0.716628 4.255403
  H 2.614844 1.876387 4.679613
  H 3.911617 2.346036 3.583536
  H 2.628371 -0.646458 -1.520333
  H 5.628392 -0.160478 0.065349
  H 4.866012 -2.179698 -3.159394
  H 4.816230 -0.604049 -3.814002
  H 2.269067 -0.552249 -3.600112
  H 2.323859 -2.192855 -2.938243
  H 3.293097 -1.368160 -5.690002
  H 1.794010 -2.208402 -5.321554
  H 3.353353 -2.996370 -5.040404
  H 7.535283 -0.704862 -1.954764
 32
 141.016619
  C 1.116468 0.148431 0.141306
  C 2.595912 0.137006 0.297503
  C 3.267694 0.583281 1.551910
  C 2.368428 1.058127 2.689714
  C 3.206040 1.481837 3.891945
  C 3.368537 -0.307013 -0.779286
  C 4.900598 -0.318574 -0.633925
  C 4.464516 -0.668345 -1.788157
  C 4.255257 -1.225992 -3.096850
  C 2.821027 -1.485116 -3.533947
  C 2.795864 -2.092273 -4.934222
  O 7.169842 -1.011271 -2.801659
  H 0.619953 0.516446 1.030658
  H 0.740402 -0.853662 -0.063377
  H 0.815174 0.769828 -0.701997
  H 3.962612 1.394830 1.303835
  H 3.890583 -0.233112 1.935266
  H 1.693795 0.255910 2.993243
  H 1.767448 1.908279 2.362061
  H 3.801373 0.651981 4.268218
  H 2.562417 1.815919 4.702000
  H 3.875604 2.298412 3.634103
  H 2.613537 -0.568201 -1.550895
  H 5.666686 -0.112325 0.069852
  H 4.845079 -2.148828 -3.116722
  H 4.792058 -0.598919 -3.814948
  H 2.241714 -0.561821 -3.583297
  H 2.322307 -2.191764 -2.865581
  H 3.258953 -1.418256 -5.652046
  H 1.772114 -2.274540 -5.248821
  H 3.343726 -3.029334 -4.959486
  H 7.866406 -0.771023 -2.198528
 32
 142.729588
  C 1.058289 0.201703 0.150173
  C 2.539154 0.161669 0.301492
  C 3.231528 0.577270 1.561074
  C 2.353212 1.058182 2.717282
  C 3.211198 1.442672 3.912932
  C 3.291407 -0.278038 -0.779747
  C 4.847338 -0.282121 -0.623545
  C 4.377605 -0.625290 -1.751254
  C 4.238102 -1.194551 -3.057256
  C 2.821105 -1.501570 -3.526028
  C 2.844038 -2.137285 -4.916388
  O 7.449472 -1.076176 -3.059658
  H 0.571714 0.566206 1.047003
  H 0.661663 -0.790910 -0.066048
  H 0.765129 0.844562 -0.679506
  H 3.943847 1.375501 1.316137
  H 3.839674 -0.261246 1.924434
  H 1.664288 0.268991 3.017895
  H 1.769831 1.926016 2.408595
  H 3.789606 0.593733 4.270085
  H 2.584669 1.781001 4.733456
  H 3.896631 2.246364 3.659804
  H 2.512961 -0.495689 -1.539836
  H 5.609059 -0.086409 0.093581
  H 4.849161 -2.107854 -3.042250
  H 4.792811 -0.570581 -3.771760
  H 2.217732 -0.594329 -3.604982
  H 2.330116 -2.211485 -2.855583
  H 3.304960 -1.467787 -5.636718
  H 1.836176 -2.355926 -5.249277
  H 3.416968 -3.056865 -4.910116
  H 8.180384 -0.840404 -2.484072
 32
 146.332046
  C 1.050083 0.240922 0.150696
  C 2.525226 0.160151 0.317315
  C 3.204047 0.558859 1.579355
  C 2.317600 1.051508 2.721663
  C 3.166306 1.421683 3.933925
  C 3.286217 -0.274369 -0.772083
  C 4.852628 -0.237959 -0.595693
  C 4.352258 -0.610098 -1.706076
  C 4.229931 -1.201026 -3.019026
  C 2.822240 -1.517305 -3.487958
  C 2.851314 -2.146803 -4.879308
  O 7.679873 -1.150295 -3.342415
  H 0.565429 0.610229 1.044983
  H 0.628086 -0.739663 -0.078803
  H 0.781104 0.903237 -0.674674
  H 3.932389 1.344794 1.345653
  H 3.791040 -0.290944 1.947004
  H 1.609952 0.271533 3.010798
  H 1.751931 1.929746 2.403778
  H 3.725645 0.563046 4.299046
  H 2.532933 1.769288 4.746669
  H 3.869354 2.215564 3.692589
  H 2.495951 -0.476685 -1.528715
  H 5.604463 -0.023705 0.118400
  H 4.858062 -2.102614 -3.011237
  H 4.764285 -0.562232 -3.733493
  H 2.210367 -0.614022 -3.559767
  H 2.337963 -2.234322 -2.820907
  H 3.308092 -1.469388 -5.597095
  H 1.844084 -2.373839 -5.214286
  H 3.435416 -3.063414 -4.875865
  H 8.426251 -0.893153 -2.797142
 32
 148.243461
  C 1.008387 0.243275 0.171976
  C 2.481101 0.166818 0.334555
  C 3.162859 0.570694 1.593614
  C 2.284206 1.050625 2.743341
  C 3.142560 1.417128 3.953390
  C 3.242625 -0.261526 -0.759262
  C 4.838103 -0.197526 -0.564991
  C 4.319557 -0.594169 -1.660434
  C 4.222343 -1.190555 -2.977627
  C 2.819414 -1.507764 -3.465895
  C 2.873649 -2.141029 -4.860064
  O 7.973353 -1.281295 -3.648868
  H 0.524217 0.609662 1.069247
  H 0.589914 -0.737027 -0.055931
  H 0.731798 0.900563 -0.650252
  H 3.888756 1.356894 1.361554
  H 3.760049 -0.275556 1.954760
  H 1.581065 0.266989 3.032578
  H 1.715220 1.930574 2.434885
  H 3.708259 0.557966 4.309879
  H 2.513633 1.756239 4.773861
  H 3.841057 2.216792 3.712051
  H 2.431998 -0.466807 -1.499941
  H 5.589342 0.015165 0.155774
  H 4.846450 -2.092929 -2.957434
  H 4.764750 -0.555875 -3.683870
  H 2.210445 -0.606835 -3.560464
  H 2.321177 -2.222992 -2.811001
  H 3.349432 -1.466444 -5.568496
  H 1.872048 -2.367288 -5.216282
  H 3.459256 -3.058876 -4.842880
  H 8.707955 -1.009313 -3.097183
 32
 148.959502
  C 0.955772 0.251682 0.221147
  C 2.433762 0.181656 0.358406
  C 3.130518 0.576775 1.612515
  C 2.268162 1.059780 2.774956
  C 3.144003 1.411975 3.974298
  C 3.179684 -0.247342 -0.758971
  C 4.791716 -0.160940 -0.573149
  C 4.251826 -0.577703 -1.645161
  C 4.195434 -1.193865 -2.954774
  C 2.802610 -1.522187 -3.471524
  C 2.887051 -2.148384 -4.865884
  O 8.299089 -1.358094 -3.826834
  H 0.486107 0.624097 1.122917
  H 0.535193 -0.732095 0.006436
  H 0.667899 0.903995 -0.603132
  H 3.857156 1.362955 1.374853
  H 3.733286 -0.271772 1.961589
  H 1.564510 0.280869 3.073114
  H 1.704687 1.946073 2.478794
  H 3.705961 0.546214 4.317078
  H 2.528816 1.752406 4.803677
  H 3.844867 2.206189 3.728494
  H 2.372664 -0.464090 -1.496468
  H 5.526494 0.067972 0.155708
  H 4.827073 -2.092047 -2.914351
  H 4.741982 -0.556280 -3.659506
  H 2.208328 -0.610023 -3.584071
  H 2.286667 -2.231484 -2.822416
  H 3.381473 -1.473160 -5.561519
  H 1.894371 -2.369181 -5.246859
  H 3.465851 -3.070164 -4.841041
  H 9.013917 -1.082110 -3.247638
 32
 149.770633
  C 0.912711 0.246412 0.249968
  C 2.392378 0.179938 0.374928
  C 3.103628 0.584137 1.616712
  C 2.252544 1.061987 2.790210
  C 3.136816 1.402616 3.981855
  C 3.118783 -0.241993 -0.742439
  C 4.758392 -0.132025 -0.560679
  C 4.187433 -0.570233 -1.614410
  C 4.165953 -1.200036 -2.922082
  C 2.777875 -1.510506 -3.469398
  C 2.869471 -2.149845 -4.851313
  O 8.660046 -1.433663 -3.968895
  H 0.454067 0.618267 1.157898
  H 0.491713 -0.737849 0.042791
  H 0.615171 0.897774 -0.570083
  H 3.821682 1.374000 1.368000
  H 3.714672 -0.259377 1.958817
  H 1.547975 0.284784 3.087851
  H 1.688210 1.952108 2.508248
  H 3.699932 0.531962 4.314750
  H 2.527556 1.737835 4.819387
  H 3.836468 2.198827 3.737706
  H 2.309769 -0.444477 -1.483831
  H 5.476065 0.126781 0.172988
  H 4.790733 -2.098313 -2.878413
  H 4.715571 -0.548314 -3.619880
  H 2.194130 -0.591353 -3.569534
  H 2.257370 -2.209971 -2.808483
  H 3.378123 -1.485843 -5.547572
  H 1.880101 -2.362373 -5.242528
  H 3.438555 -3.072934 -4.813535
  H 9.373267 -1.140507 -3.397604
 32
 149.707419
  C 0.856911 0.272184 0.294683
  C 2.338698 0.199288 0.396997
  C 3.061580 0.607193 1.631378
  C 2.225845 1.077817 2.819192
  C 3.120059 1.385334 4.015097
  C 3.044285 -0.235612 -0.731160
  C 4.717075 -0.090485 -0.559073
  C 4.134596 -0.569679 -1.584366
  C 4.130440 -1.211171 -2.891452
  C 2.751312 -1.519788 -3.462993
  C 2.871829 -2.158023 -4.846194
  O 9.065964 -1.541592 -4.155420
  H 0.410273 0.642870 1.209799
  H 0.431099 -0.709674 0.086410
  H 0.550939 0.929391 -0.518060
  H 3.791815 1.387156 1.383557
  H 3.660213 -0.249793 1.968780
  H 1.502522 0.311766 3.103601
  H 1.674772 1.984886 2.554494
  H 3.669374 0.499507 4.334568
  H 2.518957 1.718759 4.859578
  H 3.833184 2.173487 3.780739
  H 2.227002 -0.455287 -1.453704
  H 5.420544 0.204997 0.173725
  H 4.784449 -2.089060 -2.874186
  H 4.647480 -0.518885 -3.572408
  H 2.145034 -0.616407 -3.556753
  H 2.237708 -2.242106 -2.822436
  H 3.376364 -1.486192 -5.539167
  H 1.890897 -2.387219 -5.249210
  H 3.455704 -3.072707 -4.799325
  H 9.765652 -1.204370 -3.591565
 32
 150.953044
  C 0.817845 0.252503 0.321477
  C 2.295316 0.205613 0.416362
  C 3.020124 0.613677 1.644978
  C 2.184551 1.076826 2.838852
  C 3.089397 1.395536 4.030045
  C 3.004999 -0.217711 -0.730069
  C 4.690196 -0.066673 -0.528986
  C 4.094523 -0.540221 -1.552961
  C 4.104139 -1.190841 -2.858182
  C 2.729995 -1.493501 -3.441516
  C 2.859945 -2.148331 -4.813133
  O 9.347737 -1.626995 -4.324618
  H 0.370703 0.606863 1.244721
  H 0.406716 -0.739694 0.111387
  H 0.491686 0.908885 -0.487575
  H 3.734477 1.407365 1.393199
  H 3.634351 -0.235907 1.975706
  H 1.474709 0.300373 3.133563
  H 1.618888 1.977903 2.581948
  H 3.647427 0.515936 4.346891
  H 2.492079 1.723931 4.880065
  H 3.792151 2.190082 3.790307
  H 2.186835 -0.424246 -1.455262
  H 5.380284 0.222265 0.218303
  H 4.728070 -2.085247 -2.812916
  H 4.646998 -0.524669 -3.541388
  H 2.145255 -0.579278 -3.565921
  H 2.188160 -2.190240 -2.793861
  H 3.384876 -1.489592 -5.505678
  H 1.883597 -2.368690 -5.228125
  H 3.435049 -3.069711 -4.749775
  H 10.043225 -1.290943 -3.754870
