 17
 0.000000
  H 1.466819 0.164651 0.460860
  C 2.547599 0.150830 0.426088
  C 3.267826 0.625682 1.607643
  C 2.367638 1.082391 2.744759
  H 2.963160 1.421131 3.588475
  C 3.138754 -0.313953 -0.730709
  C 4.523221 -0.391108 -0.922331
  C 5.120229 -0.854498 -2.078492
  H 4.559026 -1.200107 -2.939797
  O 6.401694 -0.920416 -2.244003
  H 3.938835 1.445264 1.320331
  H 3.938802 -0.164852 1.967182
  H 1.727582 0.271342 3.083665
  H 1.727828 1.902742 2.428591
  H 2.496832 -0.637762 -1.538003
  H 5.173322 -0.069323 -0.118615
  H 6.905794 -0.606483 -1.463055
 17
 0.246018
  H 1.498844 0.293422 0.422371
  C 2.567376 0.157188 0.423940
  C 3.265378 0.597880 1.631020
  C 2.340630 1.089495 2.736230
  H 2.916838 1.404922 3.601263
  C 3.162778 -0.354451 -0.702944
  C 4.551550 -0.473975 -0.866649
  C 5.120382 -0.851533 -2.068565
  H 4.506653 -1.195805 -2.893801
  O 6.383387 -0.829864 -2.330972
  H 3.970317 1.398893 1.367681
  H 3.892371 -0.217409 2.013269
  H 1.658672 0.300481 3.053060
  H 1.740627 1.940417 2.398207
  H 2.530828 -0.652731 -1.532108
  H 5.202261 -0.193356 -0.052260
  H 6.943857 -0.504456 -1.598262
 17
 4.947499
  H 1.454683 0.347581 0.495190
  C 2.515508 0.145169 0.374869
  C 3.327036 0.564457 1.534324
  C 2.482106 1.083970 2.691203
  H 3.116856 1.376073 3.524064
  C 2.993603 -0.413994 -0.785456
  C 4.371230 -0.595636 -0.943595
  C 5.149151 -0.817159 -2.064513
  H 4.777207 -1.131655 -3.033626
  O 6.425806 -0.636711 -2.010121
  H 4.033525 1.352561 1.238188
  H 3.926982 -0.281501 1.899940
  H 1.790575 0.319085 3.043417
  H 1.902534 1.951304 2.392070
  H 2.304980 -0.661358 -1.580991
  H 4.955532 -0.367165 -0.051452
  H 6.733748 -0.329132 -1.130012
 17
 5.637347
  H 1.494998 0.417964 0.396993
  C 2.535171 0.145015 0.386988
  C 3.314389 0.571770 1.567256
  C 2.432613 1.106021 2.696151
  H 3.039803 1.390113 3.554558
  C 3.049342 -0.440156 -0.752648
  C 4.423408 -0.733271 -0.872310
  C 5.123101 -0.756297 -2.068060
  H 4.649446 -0.950874 -3.022432
  O 6.408424 -0.571168 -2.132690
  H 4.047153 1.349499 1.302679
  H 3.892108 -0.279073 1.934336
  H 1.721800 0.358437 3.018076
  H 1.877862 1.986159 2.372920
  H 2.414808 -0.600088 -1.590164
  H 5.021790 -0.695262 0.042801
  H 6.846001 -0.404416 -1.269905
 17
 10.864372
  H 1.490388 0.490705 0.461133
  C 2.513740 0.166990 0.328192
  C 3.356380 0.553693 1.475844
  C 2.543005 1.089061 2.648757
  H 3.201178 1.347187 3.476701
  C 2.942316 -0.472859 -0.805651
  C 4.309048 -0.795616 -0.926542
  C 5.151766 -0.753255 -2.027061
  H 4.840018 -0.882420 -3.058938
  O 6.397130 -0.435565 -1.879123
  H 4.074754 1.321588 1.168830
  H 3.939220 -0.311637 1.818786
  H 1.833034 0.341188 3.003883
  H 1.992760 1.984323 2.371828
  H 2.252000 -0.636678 -1.620998
  H 4.845610 -0.812169 0.024664
  H 6.663774 -0.316664 -0.942529
 17
 11.517091
  H 1.529410 0.561486 0.378650
  C 2.524170 0.149232 0.339321
  C 3.365933 0.524376 1.492876
  C 2.563969 1.131111 2.631206
  H 3.218101 1.373035 3.468888
  C 2.956197 -0.542895 -0.760993
  C 4.330075 -0.904009 -0.870793
  C 5.101628 -0.695045 -2.007270
  H 4.689854 -0.696018 -3.016994
  O 6.346965 -0.340612 -1.939702
  H 4.125808 1.251690 1.178044
  H 3.909982 -0.357000 1.860349
  H 1.797331 0.437966 2.983336
  H 2.072489 2.047114 2.317199
  H 2.311686 -0.639441 -1.618244
  H 4.863496 -1.124139 0.048449
  H 6.713341 -0.318854 -1.026199
 17
 18.231636
  H 1.667184 0.757191 0.253661
  C 2.600650 0.219883 0.265276
  C 3.444581 0.480264 1.454423
  C 2.651196 1.124668 2.581567
  H 3.277226 1.254007 3.462345
  C 2.932825 -0.573591 -0.788079
  C 4.249297 -1.115090 -0.870429
  C 5.028213 -0.633197 -1.916399
  H 4.589130 -0.414273 -2.888279
  O 6.217052 -0.163606 -1.768935
  H 4.269414 1.153894 1.193107
  H 3.896658 -0.460278 1.796474
  H 1.785693 0.521963 2.843143
  H 2.286093 2.103779 2.280716
  H 2.301488 -0.608168 -1.663699
  H 4.715670 -1.510373 0.027375
  H 6.612790 -0.307650 -0.883460
 17
 24.581170
  H 1.647381 0.694145 0.265823
  C 2.590123 0.164090 0.226809
  C 3.491065 0.441418 1.363529
  C 2.761059 1.108330 2.523958
  H 3.438259 1.280380 3.354463
  C 2.872230 -0.620328 -0.851657
  C 4.194497 -1.147158 -0.929394
  C 5.036565 -0.576983 -1.876015
  H 4.751783 -0.388268 -2.903847
  O 6.147599 -0.025355 -1.512102
  H 4.292212 1.108474 1.039633
  H 3.955462 -0.488773 1.710109
  H 1.927519 0.496712 2.861724
  H 2.358056 2.075187 2.222990
  H 2.205690 -0.643676 -1.697610
  H 4.638382 -1.509865 -0.005506
  H 6.372713 -0.166304 -0.566147
