 29
 0.000000
  C 1.002429 0.114763 0.375726
  C 2.480398 0.127352 0.410880
  C 3.242754 0.612349 1.584420
  C 2.441434 1.108018 2.783556
  H 3.099585 1.434979 3.574686
  C 3.110853 -0.343289 -0.731502
  C 4.481909 -0.435117 -0.974815
  C 5.136266 -0.878844 -2.116186
  C 4.616763 -1.386419 -3.415756
  C 3.121314 -1.495861 -3.688322
  C 2.875450 -2.042869 -5.091787
  O 6.458630 -0.879834 -2.128031
  H 0.543949 0.491495 1.283168
  H 0.643853 -0.902279 0.213861
  H 0.639187 0.717977 -0.461059
  H 3.899774 1.424048 1.252209
  H 3.899798 -0.197052 1.922177
  H 1.804105 0.312826 3.168968
  H 1.804214 1.943351 2.495096
  H 2.447239 -0.664156 -1.517819
  H 5.118795 -0.114344 -0.157306
  H 5.067047 -2.375337 -3.558602
  H 5.063547 -0.753223 -4.190738
  H 2.650630 -0.514443 -3.618213
  H 2.654145 -2.173282 -2.972428
  H 3.305396 -1.389362 -5.847381
  H 1.807509 -2.118705 -5.280601
  H 3.308934 -3.033640 -5.207177
  H 6.849123 -0.554699 -1.295321
 29
 -0.631572
  C 0.973385 0.191028 0.401294
  C 2.444978 0.113504 0.405837
  C 3.241665 0.559835 1.573633
  C 2.466764 1.083232 2.776097
  H 3.166250 1.380994 3.553208
  C 3.048935 -0.353011 -0.756891
  C 4.424003 -0.414226 -0.980058
  C 5.105094 -0.840899 -2.116037
  C 4.604163 -1.364669 -3.416176
  C 3.115772 -1.537501 -3.689203
  C 2.911693 -2.110965 -5.089586
  O 6.423749 -0.803528 -2.118014
  H 0.546063 0.336566 1.385595
  H 0.533439 -0.683812 -0.073566
  H 0.695843 1.045933 -0.222178
  H 3.932069 1.342582 1.240763
  H 3.870036 -0.277164 1.897936
  H 1.815447 0.319559 3.195346
  H 1.868763 1.952557 2.514551
  H 2.385349 -0.674015 -1.540184
  H 5.060629 -0.083357 -0.168386
  H 5.104192 -2.329278 -3.562519
  H 5.032171 -0.714246 -4.187945
  H 2.606408 -0.575196 -3.636543
  H 2.676177 -2.227040 -2.968513
  H 3.317306 -1.443736 -5.846444
  H 1.852358 -2.246137 -5.292267
  H 3.399923 -3.077482 -5.189740
  H 6.826552 -0.468426 -1.294912
 29
 -0.494771
  C 0.980232 0.196336 0.423782
  C 2.445201 0.103494 0.394859
  C 3.244697 0.508125 1.581026
  C 2.470541 1.091590 2.756160
  H 3.172107 1.410443 3.528430
  C 3.043182 -0.349778 -0.771617
  C 4.419379 -0.382880 -0.999692
  C 5.104044 -0.810359 -2.130440
  C 4.608345 -1.363793 -3.420612
  C 3.120736 -1.560295 -3.687443
  C 2.920358 -2.154025 -5.081022
  O 6.423880 -0.752613 -2.136067
  H 0.556989 0.100077 1.413437
  H 0.504831 -0.460410 -0.291658
  H 0.780132 1.230085 0.090508
  H 4.001222 1.235993 1.271277
  H 3.795432 -0.375500 1.927607
  H 1.802891 0.357647 3.204266
  H 1.888416 1.957188 2.454623
  H 2.383168 -0.688994 -1.553591
  H 5.052264 -0.032438 -0.194502
  H 5.118711 -2.325501 -3.547309
  H 5.027586 -0.725057 -4.204491
  H 2.598700 -0.603639 -3.644166
  H 2.693326 -2.245816 -2.959000
  H 3.325812 -1.496181 -5.846857
  H 1.862578 -2.295343 -5.283550
  H 3.411093 -3.119516 -5.166573
  H 6.822443 -0.413880 -1.315929
 29
 9.265577
  C 0.962690 0.176321 0.450391
  C 2.425161 0.178178 0.366875
  C 3.249796 0.488475 1.573814
  C 2.493707 1.026370 2.784783
  H 3.200469 1.238941 3.582547
  C 3.010690 -0.299960 -0.804731
  C 4.391604 -0.313039 -1.032396
  C 5.084411 -0.791570 -2.129806
  C 4.603244 -1.365579 -3.417869
  C 3.117327 -1.572342 -3.687350
  C 2.925189 -2.217320 -5.058587
  O 6.410735 -0.730090 -2.127476
  H 0.489192 0.248631 1.415342
  H 0.447730 -0.407601 -0.302145
  H 1.038062 1.218400 0.048554
  H 4.027614 1.211126 1.306823
  H 3.756577 -0.439113 1.862411
  H 1.781045 0.301330 3.166792
  H 1.971513 1.950220 2.551112
  H 2.359138 -0.646065 -1.588329
  H 5.016190 0.118596 -0.260026
  H 5.121790 -2.324347 -3.533838
  H 5.018369 -0.725634 -4.204403
  H 2.596935 -0.613918 -3.683915
  H 2.684089 -2.230456 -2.934231
  H 3.344043 -1.592196 -5.844240
  H 1.867459 -2.357631 -5.266851
  H 3.410261 -3.189885 -5.102370
  H 6.796557 -0.311689 -1.328351
 29
 27.555671
  C 0.958976 0.075859 0.501888
  C 2.398029 0.151146 0.376803
  C 3.242825 0.560389 1.549048
  C 2.477348 1.070026 2.768355
  H 3.185663 1.354742 3.540626
  C 3.010887 -0.396538 -0.762825
  C 4.388260 -0.390415 -1.001470
  C 5.076531 -0.809254 -2.125890
  C 4.595378 -1.363910 -3.426894
  C 3.108497 -1.557814 -3.697374
  C 2.909984 -2.173733 -5.079183
  O 6.411793 -0.750272 -2.127658
  H 0.450982 0.295740 1.423240
  H 0.379132 -0.363880 -0.295403
  H 1.423303 1.120240 0.029187
  H 3.945586 1.332903 1.235472
  H 3.825477 -0.315334 1.844400
  H 1.834330 0.300660 3.185157
  H 1.879642 1.946649 2.530832
  H 2.359795 -0.833475 -1.496253
  H 5.017536 0.014241 -0.215456
  H 5.106048 -2.323664 -3.555547
  H 5.015361 -0.715414 -4.204259
  H 2.592515 -0.598309 -3.671455
  H 2.676064 -2.231550 -2.956865
  H 3.328724 -1.533708 -5.853862
  H 1.850733 -2.307842 -5.286752
  H 3.392371 -3.145721 -5.143673
  H 6.792641 -0.405857 -1.300174
 29
 39.981890
  C 0.942428 0.060798 0.543208
  C 2.356569 0.228093 0.371776
  C 3.230961 0.591309 1.553723
  C 2.477889 1.041633 2.799552
  H 3.193631 1.285410 3.580075
  C 2.988991 -0.342742 -0.797955
  C 4.354555 -0.366367 -1.016713
  C 5.052998 -0.818995 -2.126929
  C 4.583168 -1.385201 -3.427513
  C 3.101105 -1.595275 -3.706256
  C 2.916187 -2.199734 -5.095812
  O 6.387894 -0.769154 -2.113721
  H 0.447012 0.323952 1.453591
  H 0.350201 -0.349113 -0.256067
  H 1.811142 1.173756 -0.065030
  H 3.919368 1.386442 1.260262
  H 3.824670 -0.287853 1.805901
  H 1.834581 0.253468 3.181867
  H 1.881675 1.930521 2.609540
  H 2.326979 -0.743828 -1.540731
  H 4.982531 0.016713 -0.220082
  H 5.104383 -2.342230 -3.547528
  H 5.001127 -0.737285 -4.207000
  H 2.572428 -0.642159 -3.673880
  H 2.674102 -2.281580 -2.974198
  H 3.329688 -1.547435 -5.861186
  H 1.859902 -2.344744 -5.309530
  H 3.411472 -3.166065 -5.168280
  H 6.762154 -0.402897 -1.289051
 29
 41.449425
  C 0.931699 0.040527 0.549690
  C 2.336197 0.263506 0.370006
  C 3.219035 0.615776 1.567235
  C 2.460501 1.020397 2.825878
  H 3.172933 1.254868 3.612906
  C 2.986073 -0.322232 -0.813858
  C 4.344447 -0.348459 -1.021267
  C 5.047296 -0.813010 -2.129805
  C 4.572655 -1.385569 -3.421864
  C 3.088613 -1.592651 -3.697612
  C 2.901333 -2.208268 -5.082317
  O 6.370556 -0.775033 -2.109600
  H 0.434465 0.263827 1.471877
  H 0.338534 -0.338147 -0.262980
  H 2.123494 1.192051 -0.248784
  H 3.888081 1.432435 1.294511
  H 3.831951 -0.256463 1.801006
  H 1.828998 0.213054 3.186373
  H 1.849505 1.903635 2.656797
  H 2.319038 -0.743106 -1.545055
  H 4.967541 0.042380 -0.226038
  H 5.090569 -2.344535 -3.536133
  H 4.992502 -0.745507 -4.206453
  H 2.562340 -0.638420 -3.673725
  H 2.659600 -2.271849 -2.960566
  H 3.319399 -1.565492 -5.853542
  H 1.844723 -2.348298 -5.295485
  H 3.389623 -3.177975 -5.145914
  H 6.748887 -0.406354 -1.290620
 29
 43.827317
  C 0.940153 0.067651 0.551328
  C 2.322153 0.256034 0.389727
  C 3.209030 0.615145 1.574672
  C 2.456834 0.997552 2.844214
  H 3.172794 1.242709 3.624605
  C 2.970246 -0.278058 -0.833496
  C 4.344056 -0.321420 -1.034051
  C 5.041911 -0.802592 -2.129339
  C 4.565710 -1.377194 -3.421504
  C 3.081740 -1.590266 -3.693689
  C 2.894923 -2.222913 -5.070814
  O 6.368026 -0.787599 -2.104658
  H 0.450188 0.241174 1.488523
  H 0.330612 -0.260631 -0.271382
  H 2.382926 1.076283 -0.457790
  H 3.860661 1.446748 1.304548
  H 3.840945 -0.246898 1.797382
  H 1.844988 0.176105 3.206975
  H 1.825868 1.868301 2.684458
  H 2.304467 -0.713371 -1.557078
  H 4.964857 0.067822 -0.235912
  H 5.087058 -2.333879 -3.536882
  H 4.980714 -0.735025 -4.206722
  H 2.552564 -0.637440 -3.682481
  H 2.654877 -2.262353 -2.948876
  H 3.323621 -1.595226 -5.848681
  H 1.837904 -2.354895 -5.287573
  H 3.373356 -3.198443 -5.118717
  H 6.748872 -0.418317 -1.288633
 29
 39.935524
  C 0.952490 0.117891 0.543665
  C 2.305212 0.246198 0.412948
  C 3.201641 0.590607 1.579487
  C 2.469712 0.929339 2.874002
  H 3.197576 1.151484 3.650350
  C 2.942499 -0.191156 -0.861777
  C 4.340357 -0.268180 -1.055730
  C 5.035798 -0.776079 -2.131053
  C 4.560736 -1.383458 -3.409641
  C 3.075801 -1.588424 -3.682378
  C 2.887991 -2.259009 -5.041252
  O 6.365579 -0.764635 -2.105799
  H 0.456087 0.329997 1.470459
  H 0.330692 -0.188749 -0.278470
  H 2.541003 0.996785 -0.690209
  H 3.836530 1.439211 1.318667
  H 3.851837 -0.267538 1.764832
  H 1.866262 0.093666 3.217819
  H 1.834044 1.802867 2.753373
  H 2.274615 -0.648512 -1.572960
  H 4.956441 0.133401 -0.261011
  H 5.071717 -2.349012 -3.491875
  H 4.987120 -0.770871 -4.212011
  H 2.557257 -0.629894 -3.702650
  H 2.637814 -2.233153 -2.919970
  H 3.320273 -1.655346 -5.835943
  H 1.830744 -2.393105 -5.255451
  H 3.362513 -3.237461 -5.061237
  H 6.746745 -0.376086 -1.298683
 29
 27.964431
  C 0.959260 0.156852 0.526878
  C 2.293858 0.265991 0.425689
  C 3.204104 0.565607 1.576388
  C 2.497940 0.823281 2.903693
  H 3.239200 1.017234 3.675046
  C 2.909607 -0.034042 -0.920038
  C 4.330100 -0.168257 -1.090046
  C 5.029141 -0.745672 -2.127612
  C 4.555012 -1.402962 -3.379621
  C 3.069506 -1.585034 -3.663472
  C 2.883244 -2.318752 -4.989642
  O 6.355745 -0.761441 -2.082662
  H 0.444187 0.325133 1.454121
  H 0.342522 -0.104256 -0.315234
  H 2.645440 1.073322 -0.979561
  H 3.814729 1.441017 1.342216
  H 3.878888 -0.286042 1.697918
  H 1.914659 -0.039747 3.213551
  H 1.845075 1.690188 2.842750
  H 2.247543 -0.540671 -1.606144
  H 4.940109 0.254697 -0.301891
  H 5.044359 -2.382815 -3.409719
  H 5.006549 -0.840774 -4.205160
  H 2.575214 -0.616616 -3.738803
  H 2.604821 -2.179923 -2.876679
  H 3.338640 -1.765607 -5.807794
  H 1.825905 -2.439335 -5.211011
  H 3.334853 -3.307533 -4.954803
  H 6.738132 -0.341336 -1.291288
 29
 19.778223
  C 0.964846 0.178308 0.521308
  C 2.297945 0.266208 0.418883
  C 3.218593 0.544947 1.559550
  C 2.538590 0.737352 2.910379
  H 3.291829 0.907881 3.675651
  C 2.878632 0.083908 -0.960083
  C 4.315583 -0.088075 -1.105000
  C 5.018514 -0.721241 -2.107700
  C 4.546784 -1.423884 -3.334298
  C 3.063676 -1.572620 -3.645793
  C 2.884036 -2.342331 -4.952395
  O 6.342313 -0.753304 -2.045918
  H 0.447773 0.289086 1.456581
  H 0.343464 -0.023739 -0.334125
  H 2.630134 1.114112 -1.290197
  H 3.798636 1.445147 1.338027
  H 3.923381 -0.289021 1.633146
  H 1.969328 -0.144536 3.192655
  H 1.873686 1.597202 2.898534
  H 2.266687 -0.565674 -1.576275
  H 4.920803 0.363823 -0.329666
  H 5.008769 -2.417488 -3.313691
  H 5.032653 -0.914324 -4.175063
  H 2.597578 -0.594033 -3.757961
  H 2.564016 -2.131863 -2.853711
  H 3.364986 -1.824705 -5.779040
  H 1.828155 -2.445658 -5.188727
  H 3.312008 -3.339478 -4.879897
  H 6.725878 -0.303695 -1.271019
 29
 18.201591
  C 0.954284 0.247307 0.539847
  C 2.292598 0.242599 0.434835
  C 3.220521 0.541272 1.564359
  C 2.552319 0.783844 2.912490
  H 3.312781 0.939574 3.673748
  C 2.857445 -0.046710 -0.924435
  C 4.306567 -0.140903 -1.076952
  C 5.021223 -0.725398 -2.099391
  C 4.554298 -1.421480 -3.331464
  C 3.072229 -1.566699 -3.646839
  C 2.892860 -2.278851 -4.985463
  O 6.346200 -0.705535 -2.058450
  H 0.440839 0.445060 1.461979
  H 0.327150 0.032445 -0.308718
  H 2.503915 0.825485 -1.503864
  H 3.809894 1.426899 1.308847
  H 3.916656 -0.297912 1.660339
  H 1.949692 -0.070215 3.210889
  H 1.920480 1.668022 2.886444
  H 2.329546 -0.883396 -1.384093
  H 4.900560 0.323499 -0.301237
  H 5.019268 -2.413910 -3.322372
  H 5.041050 -0.903223 -4.166606
  H 2.596770 -0.588551 -3.709290
  H 2.576095 -2.164770 -2.880919
  H 3.355839 -1.715296 -5.792099
  H 1.836582 -2.390006 -5.216264
  H 3.339039 -3.270321 -4.963484
  H 6.722577 -0.260527 -1.277682
 29
 17.558868
  C 0.953450 0.302485 0.524050
  C 2.291587 0.224996 0.436601
  C 3.215163 0.548898 1.564120
  C 2.542894 0.834548 2.898811
  H 3.300115 0.993774 3.661633
  C 2.863082 -0.205985 -0.875948
  C 4.315626 -0.217218 -1.040051
  C 5.034710 -0.733458 -2.096087
  C 4.562146 -1.398521 -3.341793
  C 3.077712 -1.552302 -3.637384
  C 2.881844 -2.202317 -5.004900
  O 6.358039 -0.666777 -2.080559
  H 0.449367 0.616426 1.416480
  H 0.322569 0.051005 -0.310120
  H 2.419837 0.456319 -1.637370
  H 3.812200 1.423331 1.285227
  H 3.904148 -0.290930 1.690597
  H 1.922280 -0.000360 3.210808
  H 1.928391 1.729636 2.848682
  H 2.437263 -1.181056 -1.140419
  H 4.900872 0.242128 -0.254915
  H 5.037163 -2.382396 -3.367379
  H 5.032463 -0.852513 -4.169598
  H 2.585308 -0.580368 -3.642659
  H 2.601493 -2.188403 -2.889936
  H 3.319843 -1.592633 -5.794147
  H 1.822728 -2.320040 -5.219544
  H 3.343158 -3.184764 -5.040066
  H 6.733827 -0.241201 -1.289977
 29
 17.347438
  C 0.952815 0.218420 0.551013
  C 2.292132 0.179042 0.453327
  C 3.211902 0.566396 1.564346
  C 2.536423 0.928471 2.882702
  H 3.292832 1.160224 3.628245
  C 2.871535 -0.294208 -0.843033
  C 4.323796 -0.275386 -1.017027
  C 5.038896 -0.754744 -2.092165
  C 4.561388 -1.410421 -3.341554
  C 3.076165 -1.502049 -3.662974
  C 2.876961 -2.128189 -5.039479
  O 6.361574 -0.664041 -2.092074
  H 0.448870 0.533682 1.445307
  H 0.319904 -0.066626 -0.272270
  H 2.398848 0.283221 -1.650362
  H 3.807940 1.423974 1.235429
  H 3.902439 -0.264261 1.741722
  H 1.938899 0.101585 3.257708
  H 1.898802 1.801828 2.773448
  H 2.487938 -1.307126 -1.032266
  H 4.911687 0.166783 -0.221722
  H 4.990519 -2.419588 -3.343910
  H 5.073405 -0.898991 -4.165858
  H 2.624789 -0.509059 -3.666562
  H 2.559014 -2.121966 -2.930349
  H 3.350086 -1.529663 -5.813181
  H 1.818457 -2.201498 -5.271625
  H 3.300119 -3.128887 -5.078448
  H 6.741143 -0.254615 -1.294232
