18

C -3.455941 0.993907 -0.168624
C -2.02721 0.567891 -0.018718
C -1.649411 -0.494841 0.671104
C -0.239258 -0.971209 0.842528
C 0.789996 -0.086588 0.148259
C 2.211685 -0.614457 0.327763
H 2.52286128502463 -0.3548030801788535 0.10279656431476347
H -4.062039 0.180657 -0.565915
H -3.540861 1.854 -0.82889
H -3.873467 1.265176 0.801705
H -1.284895 1.181418 -0.504811
H -2.397613 -1.109095 1.158957
H -0.01177 -1.033415 1.911945
H -0.174474 -1.988478 0.441414
H 0.540001 -0.043553 -0.915101
H 0.729145 0.924139 0.55749
H 2.442764 -0.618327 1.396171
H 2.258386 -1.649481 -0.016682
