 31
 0.000000
  C 0.992229 0.146320 0.372590
  C 2.468001 0.160175 0.400987
  C 3.235610 0.619015 1.577791
  C 2.444636 1.092102 2.793668
  C 3.382816 1.529182 3.914329
  C 3.095218 -0.290731 -0.753754
  C 4.471473 -0.394096 -0.996552
  C 5.115438 -0.858708 -2.116372
  C 4.611683 -1.388720 -3.398899
  C 3.120778 -1.504613 -3.688454
  C 2.891483 -2.082399 -5.083567
  H 6.195553 -0.859450 -2.111370
  H 0.537990 0.501706 1.290642
  H 0.627503 -0.867533 0.184141
  H 0.631404 0.768574 -0.447223
  H 3.893584 1.435254 1.257948
  H 3.894496 -0.197797 1.894092
  H 1.806873 0.288183 3.165974
  H 1.805849 1.935379 2.524392
  H 4.019169 0.706990 4.234164
  H 2.809301 1.864092 4.775139
  H 4.018105 2.351818 3.593487
  H 2.428465 -0.602125 -1.542072
  H 5.112215 -0.061271 -0.187727
  H 5.065437 -2.380998 -3.517207
  H 5.069780 -0.773008 -4.183470
  H 2.649454 -0.521665 -3.645351
  H 2.644895 -2.166323 -2.963230
  H 3.330775 -1.445581 -5.848068
  H 1.825959 -2.162664 -5.284449
  H 3.326213 -3.075438 -5.172291
 31
 -0.687439
  C 0.945905 0.138659 0.434803
  C 2.415018 0.177932 0.393863
  C 3.211944 0.633120 1.552011
  C 2.455563 1.093700 2.792468
  C 3.430016 1.515714 3.886453
  C 3.021429 -0.278990 -0.769400
  C 4.407717 -0.397932 -0.970893
  C 5.062674 -0.871900 -2.079971
  C 4.601171 -1.395732 -3.373734
  C 3.120644 -1.487529 -3.725285
  C 2.940855 -2.058784 -5.130742
  H 6.146354 -0.872207 -2.005797
  H 0.520766 0.711928 1.249315
  H 0.645507 -0.909033 0.559325
  H 0.517331 0.458449 -0.514038
  H 3.868071 1.446251 1.221008
  H 3.889725 -0.177245 1.844364
  H 1.828823 0.287600 3.172444
  H 1.815393 1.942545 2.551980
  H 4.075266 0.687695 4.175387
  H 2.887652 1.842908 4.771631
  H 4.057463 2.340861 3.553134
  H 2.362263 -0.575243 -1.565347
  H 5.048371 -0.083485 -0.156613
  H 5.056102 -2.391844 -3.483619
  H 5.115117 -0.804710 -4.146893
  H 2.666375 -0.495513 -3.695501
  H 2.606970 -2.142147 -3.018876
  H 3.422024 -1.426308 -5.874068
  H 1.884681 -2.126091 -5.380877
  H 3.366994 -3.056091 -5.204156
 31
 1.769393
  C 0.950620 0.071716 0.487875
  C 2.411531 0.124423 0.410612
  C 3.217756 0.651876 1.534333
  C 2.458734 1.130337 2.768908
  C 3.431417 1.629988 3.833453
  C 3.007771 -0.364171 -0.749098
  C 4.384921 -0.560496 -0.915347
  C 5.048423 -1.010468 -2.031109
  C 4.600694 -1.428382 -3.366708
  C 3.128007 -1.424816 -3.754480
  C 2.955667 -1.908877 -5.192421
  H 6.125694 -1.076114 -1.927061
  H 0.486700 0.715787 1.219706
  H 0.889479 -0.960853 0.881382
  H 0.450837 0.053192 -0.472842
  H 3.815731 1.485782 1.148753
  H 3.938566 -0.111261 1.847041
  H 1.868418 0.314076 3.188516
  H 1.783659 1.946581 2.506888
  H 4.110114 0.838857 4.144447
  H 2.889731 1.971270 4.711938
  H 4.023766 2.462540 3.460236
  H 2.354704 -0.612353 -1.567900
  H 5.015709 -0.329460 -0.067750
  H 5.008631 -2.436246 -3.529204
  H 5.158577 -0.810648 -4.085186
  H 2.723032 -0.414532 -3.679746
  H 2.566973 -2.091010 -3.097552
  H 3.484025 -1.260707 -5.887996
  H 1.904388 -1.911688 -5.468842
  H 3.337418 -2.920399 -5.312102
 31
 13.917963
  C 0.952307 0.118705 0.464853
  C 2.406903 0.093164 0.423055
  C 3.220349 0.614679 1.553611
  C 2.450697 1.094490 2.786260
  C 3.416371 1.638481 3.837301
  C 3.013199 -0.306253 -0.767982
  C 4.391079 -0.520611 -0.934838
  C 5.047471 -1.007910 -2.037338
  C 4.593241 -1.451574 -3.367135
  C 3.122744 -1.386041 -3.765921
  C 2.933562 -1.915410 -5.186205
  H 6.121075 -1.099254 -1.928479
  H 0.437172 0.661452 1.236173
  H 1.202849 -0.932530 0.844406
  H 0.424090 -0.038896 -0.466195
  H 3.805790 1.456000 1.163545
  H 3.940534 -0.147441 1.870247
  H 1.883757 0.269885 3.226986
  H 1.754744 1.890058 2.512349
  H 4.117435 0.870594 4.158491
  H 2.870949 1.982275 4.712919
  H 3.985498 2.479313 3.445123
  H 2.364500 -0.441753 -1.615566
  H 5.026240 -0.292957 -0.089346
  H 4.944123 -2.486938 -3.485257
  H 5.185515 -0.887650 -4.101412
  H 2.774558 -0.351716 -3.735344
  H 2.522709 -1.994187 -3.088381
  H 3.503985 -1.326241 -5.900454
  H 1.886575 -1.869794 -5.472999
  H 3.258938 -2.951092 -5.262569
 31
 32.176079
  C 0.911575 0.188952 0.486718
  C 2.332832 0.024563 0.456830
  C 3.195904 0.578800 1.553038
  C 2.455387 1.143949 2.764146
  C 3.451475 1.665358 3.797201
  C 2.955156 -0.409324 -0.752339
  C 4.330809 -0.599028 -0.901497
  C 5.016873 -1.016487 -2.014295
  C 4.593169 -1.414618 -3.368441
  C 3.122358 -1.404205 -3.766408
  C 2.961282 -1.863388 -5.213130
  H 6.091240 -1.081343 -1.895710
  H 0.403040 0.660543 1.304451
  H 1.556665 -0.929977 0.818223
  H 0.329365 -0.062428 -0.383751
  H 3.801963 1.374469 1.117556
  H 3.883589 -0.194882 1.902109
  H 1.843643 0.372702 3.232242
  H 1.808652 1.968436 2.460898
  H 4.105077 0.868705 4.145306
  H 2.928281 2.071683 4.659821
  H 4.069834 2.454955 3.376685
  H 2.307686 -0.641270 -1.581851
  H 4.952337 -0.377985 -0.042579
  H 4.997549 -2.420505 -3.539979
  H 5.151383 -0.779468 -4.068490
  H 2.719174 -0.395410 -3.678408
  H 2.557306 -2.083013 -3.125221
  H 3.499799 -1.205342 -5.891984
  H 1.912424 -1.858183 -5.500464
  H 3.342240 -2.873319 -5.345177
 31
 40.203291
  C 0.904657 0.238930 0.476518
  C 2.318273 0.031261 0.470048
  C 3.194314 0.571805 1.588381
  C 2.446684 1.138421 2.794618
  C 3.435306 1.657135 3.834524
  C 2.959364 -0.376635 -0.772830
  C 4.330017 -0.552228 -0.928129
  C 5.012416 -0.987711 -2.042707
  C 4.581221 -1.410375 -3.389051
  C 3.107296 -1.419603 -3.778275
  C 2.942102 -1.902162 -5.217127
  H 6.089116 -1.035152 -1.932804
  H 0.394052 0.680406 1.310443
  H 1.913496 -1.032683 0.695800
  H 0.316562 -0.030317 -0.385161
  H 3.816616 1.364632 1.168130
  H 3.863861 -0.214338 1.939872
  H 1.828298 0.366499 3.257284
  H 1.803717 1.964001 2.486256
  H 4.084775 0.858478 4.187159
  H 2.906510 2.064194 4.692975
  H 4.058389 2.445851 3.418361
  H 2.304493 -0.557647 -1.607334
  H 4.952840 -0.318921 -0.075173
  H 4.993491 -2.416230 -3.546853
  H 5.130207 -0.782771 -4.103477
  H 2.695092 -0.412072 -3.704243
  H 2.551982 -2.093154 -3.124105
  H 3.469255 -1.249052 -5.909263
  H 1.892069 -1.912119 -5.497632
  H 3.332634 -2.910277 -5.336654
 31
 41.905510
  C 0.912906 0.244022 0.481561
  C 2.306434 0.000449 0.494284
  C 3.187850 0.559011 1.604921
  C 2.439035 1.154253 2.796581
  C 3.426200 1.682242 3.833237
  C 2.955936 -0.425633 -0.763501
  C 4.328872 -0.586163 -0.922149
  C 5.003675 -0.991869 -2.044869
  C 4.566130 -1.396913 -3.392000
  C 3.089575 -1.417352 -3.770554
  C 2.919979 -1.876366 -5.217509
  H 6.081915 -1.022262 -1.945580
  H 0.410018 0.736610 1.290907
  H 2.254975 -1.155800 0.538921
  H 0.314492 -0.067389 -0.358202
  H 3.819489 1.341472 1.175150
  H 3.848037 -0.225660 1.980785
  H 1.810069 0.395233 3.265962
  H 1.804784 1.980135 2.470712
  H 4.069063 0.885649 4.200232
  H 2.896133 2.104353 4.682785
  H 4.055162 2.461148 3.408088
  H 2.295158 -0.594865 -1.596278
  H 4.950976 -0.356200 -0.067423
  H 4.989596 -2.395150 -3.567663
  H 5.103626 -0.753337 -4.101125
  H 2.665806 -0.416076 -3.676372
  H 2.546225 -2.109474 -3.125646
  H 3.428400 -1.200710 -5.902570
  H 1.867040 -1.900546 -5.488793
  H 3.327613 -2.875157 -5.359719
 31
 40.418474
  C 0.919815 0.232884 0.499903
  C 2.285197 0.022600 0.501993
  C 3.172705 0.566373 1.602393
  C 2.438745 1.181117 2.792323
  C 3.438176 1.697315 3.821824
  C 2.931627 -0.484535 -0.736139
  C 4.324469 -0.624606 -0.906497
  C 4.997269 -1.004547 -2.030820
  C 4.560303 -1.390328 -3.385175
  C 3.084017 -1.416073 -3.759519
  C 2.913965 -1.849594 -5.212707
  H 6.076022 -1.030682 -1.935279
  H 0.418720 0.717766 1.315143
  H 2.445161 -1.208240 0.294778
  H 0.306887 -0.091143 -0.322078
  H 3.817630 1.330114 1.167564
  H 3.818401 -0.226365 1.983448
  H 1.798708 0.435496 3.266450
  H 1.817385 2.015085 2.463599
  H 4.068048 0.891113 4.192368
  H 2.918215 2.134333 4.669954
  H 4.079521 2.462203 3.389673
  H 2.272388 -0.636810 -1.576389
  H 4.942736 -0.398807 -0.047931
  H 4.990874 -2.380655 -3.579666
  H 5.088957 -0.729920 -4.082870
  H 2.652038 -0.420329 -3.646435
  H 2.548542 -2.124358 -3.127119
  H 3.416842 -1.159039 -5.886479
  H 1.860835 -1.875120 -5.482029
  H 3.326769 -2.842464 -5.373570
 31
 29.098135
  C 0.913698 0.158828 0.517997
  C 2.248127 -0.039561 0.549645
  C 3.152393 0.574725 1.571627
  C 2.449857 1.256653 2.749269
  C 3.476910 1.803543 3.735990
  C 2.875305 -0.728284 -0.634955
  C 4.301690 -0.788359 -0.832325
  C 4.983285 -1.098606 -1.970293
  C 4.556592 -1.377529 -3.348686
  C 3.083359 -1.386038 -3.732709
  C 2.924453 -1.671264 -5.223270
  H 6.061287 -1.128442 -1.870527
  H 0.415200 0.727212 1.278473
  H 2.578720 -1.530093 0.147899
  H 0.285312 -0.261566 -0.248027
  H 3.779737 1.313184 1.063308
  H 3.820177 -0.187805 1.981839
  H 1.806681 0.543359 3.267526
  H 1.834365 2.083621 2.392510
  H 4.114747 1.008096 4.116175
  H 2.979205 2.269102 4.583046
  H 4.107845 2.552922 3.263077
  H 2.217820 -0.858018 -1.484377
  H 4.910553 -0.592561 0.040406
  H 4.997646 -2.345417 -3.619727
  H 5.086611 -0.661477 -3.990060
  H 2.635629 -0.412261 -3.520800
  H 2.554581 -2.162233 -3.177779
  H 3.414913 -0.905342 -5.821777
  H 1.872175 -1.689043 -5.497271
  H 3.356457 -2.635615 -5.484440
 31
 18.818192
  C 0.916219 0.194968 0.502842
  C 2.250738 -0.000438 0.536537
  C 3.158491 0.530558 1.589675
  C 2.482276 1.300987 2.723094
  C 3.518144 1.788689 3.730721
  C 2.832254 -0.799620 -0.596188
  C 4.276824 -0.824124 -0.797878
  C 4.965726 -1.009707 -1.955854
  C 4.543950 -1.277067 -3.340332
  C 3.075775 -1.410923 -3.713885
  C 2.924878 -1.708788 -5.203885
  H 6.044844 -0.957951 -1.867181
  H 0.395301 0.768520 1.247127
  H 2.563115 -1.756407 -0.093317
  H 0.307619 -0.208592 -0.289520
  H 3.889667 1.184621 1.103124
  H 3.721408 -0.295925 2.034190
  H 1.764047 0.660092 3.236383
  H 1.948391 2.164043 2.320798
  H 4.054943 0.952344 4.173422
  H 3.035824 2.341351 4.533677
  H 4.240834 2.448291 3.255586
  H 2.223264 -0.766299 -1.493155
  H 4.876323 -0.664935 0.086655
  H 5.069344 -2.192394 -3.648765
  H 5.005944 -0.501953 -3.967082
  H 2.549453 -0.477862 -3.499984
  H 2.615183 -2.223501 -3.150467
  H 3.350332 -0.910745 -5.807564
  H 1.874115 -1.805219 -5.467504
  H 3.423304 -2.638484 -5.469037
 31
 16.521429
  C 0.892837 0.076856 0.598367
  C 2.238019 0.006903 0.536771
  C 3.150830 0.545946 1.579015
  C 2.487323 1.289038 2.736489
  C 3.539086 1.828877 3.700526
  C 2.807927 -0.709706 -0.645753
  C 4.261743 -0.803660 -0.793719
  C 4.967212 -1.065686 -1.923950
  C 4.556822 -1.323921 -3.314546
  C 3.090341 -1.387991 -3.708343
  C 2.940637 -1.696406 -5.195421
  H 6.044300 -1.091161 -1.808015
  H 0.371903 0.543954 1.413504
  H 2.413192 -1.725300 -0.457468
  H 0.273511 -0.324243 -0.185968
  H 3.862680 1.218592 1.088094
  H 3.738739 -0.278107 1.996092
  H 1.821527 0.618241 3.281731
  H 1.896744 2.123155 2.353992
  H 4.141604 1.021338 4.110700
  H 3.063969 2.348006 4.529353
  H 4.201222 2.531373 3.199109
  H 2.300466 -0.414296 -1.565944
  H 4.844408 -0.660737 0.104652
  H 5.038995 -2.268919 -3.604116
  H 5.070057 -0.583257 -3.943654
  H 2.607516 -0.426620 -3.514888
  H 2.578501 -2.162977 -3.136817
  H 3.419924 -0.933425 -5.804734
  H 1.889845 -1.734910 -5.471154
  H 3.386650 -2.657426 -5.441671
 31
 15.302303
  C 0.890016 0.036372 0.624133
  C 2.234901 0.014174 0.530244
  C 3.146157 0.535972 1.588345
  C 2.480902 1.256189 2.758888
  C 3.532445 1.809319 3.717171
  C 2.816991 -0.577371 -0.710454
  C 4.275639 -0.725109 -0.814456
  C 4.981937 -1.056824 -1.924811
  C 4.562860 -1.352594 -3.308337
  C 3.093783 -1.395399 -3.693528
  C 2.924226 -1.769528 -5.163443
  H 6.054484 -1.115609 -1.801056
  H 0.377739 0.415346 1.486961
  H 2.354023 -1.566453 -0.838682
  H 0.268612 -0.335296 -0.169588
  H 3.861181 1.219347 1.117132
  H 3.731515 -0.300428 1.988887
  H 1.834106 0.566748 3.307079
  H 1.867720 2.081751 2.389527
  H 4.150357 1.008905 4.120408
  H 3.056090 2.319055 4.551266
  H 4.180879 2.523466 3.212577
  H 2.427885 -0.024939 -1.578422
  H 4.851376 -0.567973 0.086421
  H 5.025052 -2.316246 -3.571065
  H 5.090057 -0.644093 -3.963624
  H 2.632567 -0.416337 -3.538125
  H 2.562614 -2.125050 -3.081032
  H 3.421945 -1.050962 -5.811863
  H 1.870286 -1.789316 -5.431241
  H 3.340184 -2.753588 -5.367081
 31
 15.149689
  C 0.895828 0.068171 0.605963
  C 2.241724 0.036607 0.519521
  C 3.146974 0.543900 1.586629
  C 2.477030 1.237788 2.767960
  C 3.523297 1.764039 3.744274
  C 2.830459 -0.532315 -0.728491
  C 4.287509 -0.672404 -0.833279
  C 4.989256 -1.026488 -1.939985
  C 4.562404 -1.354599 -3.312129
  C 3.091514 -1.408146 -3.686398
  C 2.912745 -1.820913 -5.144152
  H 6.064400 -1.079395 -1.821274
  H 0.381755 0.464106 1.463071
  H 2.365142 -1.515466 -0.899196
  H 0.272874 -0.309166 -0.188234
  H 3.859266 1.239327 1.131698
  H 3.733458 -0.297615 1.971684
  H 1.824950 0.538712 3.295065
  H 1.870062 2.073524 2.414622
  H 4.135140 0.952577 4.132455
  H 3.043606 2.255685 4.586690
  H 4.177059 2.486841 3.260859
  H 2.451051 0.049655 -1.581903
  H 4.866825 -0.487483 0.057870
  H 5.027848 -2.319551 -3.561413
  H 5.081210 -0.655339 -3.983798
  H 2.628917 -0.427079 -3.550552
  H 2.565183 -2.123378 -3.052325
  H 3.405082 -1.119727 -5.814416
  H 1.857649 -1.848856 -5.404106
  H 3.328312 -2.809480 -5.324476
