 20
 0.000000
  C 1.006600 -0.071485 0.047722
  C 2.502916 -0.082175 0.026739
  C 3.219639 -0.594706 -0.979448
  C 4.657053 -0.605681 -1.000992
  C 5.378067 -1.120873 -2.012398
  C 6.816197 -1.130857 -2.031995
  C 7.534976 -1.642519 -3.036480
  C 9.024821 -1.662080 -3.074875
  H 0.643202 0.394424 0.962374
  H 0.611548 -1.086305 0.007997
  H 0.611551 0.493053 -0.796510
  H 3.002959 0.353247 0.881547
  H 2.709058 -1.028238 -1.830533
  H 5.161466 -0.170837 -0.147324
  H 4.874094 -1.555783 -2.866200
  H 7.322582 -0.696369 -1.179022
  H 7.036287 -2.078741 -3.892841
  H 9.458072 -1.208897 -2.185206
  H 9.384158 -1.116478 -3.948682
  H 9.384155 -2.689681 -3.147321
 20
 2.766221
  C 0.977008 -0.081855 0.026747
  C 2.509464 -0.076703 0.039789
  C 3.216078 -0.586417 -0.961109
  C 4.672736 -0.586558 -0.966392
  C 5.387437 -1.101552 -1.977559
  C 6.824703 -1.128761 -2.025003
  C 7.531544 -1.643657 -3.036341
  C 9.018939 -1.677581 -3.106115
  H 0.639090 0.385634 0.945316
  H 0.659111 -1.119004 -0.024930
  H 0.661294 0.486691 -0.842931
  H 2.917663 0.376045 0.928892
  H 2.795067 -1.037906 -1.847707
  H 5.104985 -0.136642 -0.083081
  H 4.877592 -1.534800 -2.828579
  H 7.335874 -0.695014 -1.173740
  H 7.011300 -2.075204 -3.883163
  H 9.452356 -1.224386 -2.216879
  H 9.371782 -1.138912 -3.985807
  H 9.374453 -2.705175 -3.186384
 20
 9.177451
  C 0.953714 -0.101739 -0.025509
  C 2.547061 -0.064905 0.079319
  C 3.243830 -0.577256 -0.932663
  C 4.698220 -0.572856 -0.940038
  C 5.388192 -1.101546 -1.955110
  C 6.814790 -1.170204 -1.990795
  C 7.500396 -1.678428 -3.019018
  C 8.984963 -1.678195 -3.122362
  H 0.631124 0.372495 0.884404
  H 0.714249 -1.150998 -0.079804
  H 0.737523 0.490682 -0.901104
  H 2.836540 0.393053 1.003306
  H 2.823349 -1.006662 -1.827144
  H 5.163461 -0.120550 -0.078617
  H 4.864875 -1.514318 -2.802353
  H 7.345789 -0.729237 -1.160731
  H 6.977302 -2.095330 -3.868744
  H 9.436031 -1.185649 -2.266513
  H 9.293882 -1.118921 -4.005900
  H 9.368442 -2.692864 -3.198871
 20
 12.913762
  C 0.937752 -0.037793 -0.092645
  C 2.533494 -0.073837 0.130063
  C 3.251213 -0.623126 -0.842573
  C 4.701036 -0.625158 -0.856196
  C 5.389331 -1.184322 -1.871825
  C 6.827096 -1.206580 -1.966481
  C 7.501192 -1.721960 -2.997723
  C 8.981946 -1.633998 -3.182660
  H 0.566389 0.482118 0.778038
  H 0.678074 -1.074965 -0.212420
  H 0.844902 0.544071 -0.995898
  H 2.776332 0.394624 1.062411
  H 2.845170 -1.092979 -1.719691
  H 5.209413 -0.195012 -0.008671
  H 4.834445 -1.599791 -2.706345
  H 7.391582 -0.758649 -1.156499
  H 6.965248 -2.157856 -3.836067
  H 9.434706 -1.113298 -2.338051
  H 9.209233 -1.010692 -4.053433
  H 9.417694 -2.617996 -3.348945
 20
 16.716186
  C 0.940233 -0.035886 -0.069397
  C 2.535346 -0.088193 0.123514
  C 3.261238 -0.627335 -0.836410
  C 4.711826 -0.643292 -0.853165
  C 5.399313 -1.187036 -1.871831
  C 6.838368 -1.181120 -1.976590
  C 7.505560 -1.679442 -3.015325
  C 8.982723 -1.622376 -3.196173
  H 0.557078 0.480269 0.809479
  H 0.677798 -1.067885 -0.215616
  H 0.849794 0.523608 -0.986733
  H 2.719990 0.375355 1.068480
  H 2.836861 -1.063543 -1.737044
  H 5.153303 -0.169945 0.020238
  H 4.871337 -1.610392 -2.725006
  H 7.375481 -0.721119 -1.152646
  H 6.963138 -2.147907 -3.831255
  H 9.468537 -1.134043 -2.351462
  H 9.219291 -1.088880 -4.115209
  H 9.390293 -2.626644 -3.320326
 20
 23.582975
  C 0.952688 -0.030937 -0.074917
  C 2.560445 -0.086816 0.108959
  C 3.235456 -0.662379 -0.876975
  C 4.686106 -0.663951 -0.898811
  C 5.365085 -1.207416 -1.898943
  C 6.797830 -1.200581 -1.978435
  C 7.486642 -1.708626 -3.005554
  C 8.960002 -1.610879 -3.167406
  H 0.678203 0.486980 0.820432
  H 0.744026 -1.075429 -0.128815
  H 0.913985 0.540110 -0.990303
  H 2.767055 0.407699 1.034652
  H 2.811889 -1.112718 -1.770048
  H 5.121587 -0.180068 -0.028138
  H 4.849692 -1.643858 -2.743216
  H 7.313750 -0.723996 -1.166671
  H 6.949805 -2.157980 -3.833692
  H 9.406724 -1.078476 -2.321564
  H 9.179663 -1.036059 -4.064602
  H 9.421990 -2.582438 -3.271987
 20
 32.208270
  C 0.808209 -0.049909 -0.054913
  C 2.539654 -0.040161 0.104941
  C 3.268963 -0.573862 -0.857780
  C 4.712729 -0.587041 -0.919639
  C 5.412514 -1.147873 -1.926471
  C 6.858689 -1.285403 -1.935298
  C 7.523229 -1.784709 -2.986269
  C 8.991025 -1.615157 -3.204151
  H 0.527423 0.409407 0.863412
  H 0.689327 -1.130861 -0.082329
  H 0.753325 0.502101 -0.984922
  H 2.727215 0.465233 1.033494
  H 2.800146 -1.030021 -1.732614
  H 5.177395 -0.143928 -0.044830
  H 4.901543 -1.556415 -2.786797
  H 7.369693 -0.806153 -1.104728
  H 6.963109 -2.173239 -3.824318
  H 9.484737 -1.158820 -2.358341
  H 9.161533 -1.045846 -4.119826
  H 9.457048 -2.588614 -3.361026
 20
 58.837362
  C 0.649634 -0.186511 0.043301
  C 2.660450 0.045919 0.063356
  C 3.338478 -0.354963 -0.997227
  C 4.741019 -0.429212 -1.066400
  C 5.423532 -0.998942 -2.077233
  C 6.825318 -1.290216 -1.991378
  C 7.508084 -1.824444 -2.973684
  C 8.988093 -1.728041 -3.123008
  H 0.433394 0.195087 1.011141
  H 0.626919 -1.243643 -0.057702
  H 0.435070 0.434153 -0.793218
  H 2.943710 0.444568 1.019992
  H 2.787910 -0.853319 -1.788072
  H 5.317681 -0.065513 -0.224311
  H 4.912811 -1.359700 -2.966396
  H 7.351894 -0.914938 -1.099533
  H 6.979975 -2.216418 -3.829928
  H 9.424668 -1.236703 -2.252085
  H 9.207496 -1.072181 -3.976863
  H 9.470187 -2.706361 -3.242597
 20
 92.117458
  C 0.406012 -0.117114 -0.039354
  C 2.702497 0.026882 0.150816
  C 3.369587 -0.468901 -0.851294
  C 4.815544 -0.528362 -0.925475
  C 5.467668 -1.074175 -1.956312
  C 6.891985 -1.278804 -1.981099
  C 7.551675 -1.800713 -3.024879
  C 9.021391 -1.696218 -3.233884
  H 0.199841 0.352653 0.897394
  H 0.386562 -1.183601 -0.103832
  H 0.358214 0.461657 -0.936355
  H 2.911434 0.506135 1.077723
  H 2.856909 -0.905678 -1.695939
  H 5.354340 -0.140478 -0.071813
  H 4.909896 -1.451093 -2.804240
  H 7.451008 -0.867786 -1.148489
  H 6.988566 -2.164670 -3.875414
  H 9.506255 -1.225606 -2.382339
  H 9.222676 -1.099427 -4.122442
  H 9.463803 -2.681127 -3.388951
