14

H -0.63889389363265 -0.8123394115976781 0.7556550680386646
C -0.237493 -0.94667 0.801502
C 0.810494 -0.083102 0.112088
C 2.224022 -0.618947 0.344113
C 3.276921 0.218411 -0.394804
H -0.012285 -1.000454 1.874185
H -0.175272 -1.969375 0.409522
H 0.609002 -0.059454 -0.961186
H 0.75114 0.937207 0.495492
H 2.427638 -0.599379 1.417794
H 2.272358 -1.661008 0.024317
H 3.980616 0.676309 0.298271
H 3.84455 -0.390642 -1.097001
H 2.798967 1.01602 -0.961956
