 23
 0.000000
  C 1.007740 0.111639 0.329550
  C 2.482156 0.124532 0.361645
  C 3.235365 0.601262 1.546883
  C 2.419999 1.080905 2.740209
  H 3.093671 1.398399 3.530009
  C 3.142536 -0.331484 -0.772545
  C 4.525575 -0.395981 -0.933672
  C 5.187516 -0.851981 -2.072113
  C 4.541259 -1.345256 -3.303326
  H 3.463031 -1.325441 -3.255246
  O 6.496908 -0.871545 -2.121758
  H 0.556583 0.478572 1.242547
  H 0.650427 -0.902122 0.139781
  H 0.650577 0.712430 -0.508783
  H 3.895291 1.415512 1.227543
  H 3.895641 -0.207134 1.880019
  H 1.792746 0.288316 3.138675
  H 1.792800 1.928695 2.479328
  H 2.517890 -0.659909 -1.589875
  H 5.148071 -0.066603 -0.112324
  H 4.882817 -2.360444 -3.501270
  H 4.883655 -0.748295 -4.147612
  H 6.934447 -0.547438 -1.313005
 23
 -0.385636
  C 1.014844 0.019267 0.373792
  C 2.487292 0.079303 0.377097
  C 3.230583 0.623877 1.539216
  C 2.399733 1.167066 2.693492
  H 3.062375 1.578189 3.451812
  C 3.152143 -0.367922 -0.759439
  C 4.535498 -0.402315 -0.931033
  C 5.191801 -0.859056 -2.070906
  C 4.537357 -1.317807 -3.313988
  H 3.463756 -1.183893 -3.306627
  O 6.502207 -0.911551 -2.119352
  H 0.590170 0.071951 1.369404
  H 0.659323 -0.874795 -0.135835
  H 0.627196 0.870316 -0.193218
  H 3.891265 1.420636 1.182580
  H 3.890267 -0.163106 1.921996
  H 1.807978 0.386035 3.164653
  H 1.735653 1.961376 2.363699
  H 2.530177 -0.726710 -1.566297
  H 5.158952 -0.069056 -0.112973
  H 4.773074 -2.370901 -3.472986
  H 4.969276 -0.782940 -4.158360
  H 6.957434 -0.619315 -1.307497
 23
 -1.078880
  C 1.032402 -0.076091 0.438721
  C 2.498883 0.039063 0.384105
  C 3.228548 0.649691 1.519282
  C 2.371807 1.264054 2.619274
  H 3.013230 1.752227 3.347601
  C 3.162725 -0.405153 -0.753092
  C 4.545054 -0.403509 -0.936898
  C 5.201899 -0.854783 -2.078439
  C 4.544270 -1.319188 -3.319060
  H 3.480442 -1.129178 -3.333065
  O 6.512363 -0.897438 -2.130910
  H 0.694006 -0.361374 1.430971
  H 0.646709 -0.774110 -0.303060
  H 0.588668 0.905199 0.240920
  H 3.907025 1.415414 1.133438
  H 3.866979 -0.121021 1.964441
  H 1.789581 0.510544 3.146556
  H 1.691491 2.008527 2.219156
  H 2.545227 -0.799613 -1.547358
  H 5.166191 -0.048000 -0.126348
  H 4.723750 -2.385910 -3.439029
  H 5.017813 -0.835496 -4.173908
  H 6.966241 -0.607698 -1.317274
 23
 -0.619700
  C 1.074529 -0.268276 0.542496
  C 2.515468 -0.002071 0.408432
  C 3.230478 0.640424 1.538554
  C 2.356999 1.432443 2.506204
  H 2.985592 1.913358 3.251031
  C 3.165752 -0.385759 -0.756537
  C 4.544697 -0.351012 -0.963252
  C 5.197987 -0.835752 -2.093886
  C 4.541104 -1.275403 -3.342562
  H 3.461308 -1.246374 -3.290667
  O 6.504655 -0.945890 -2.120654
  H 0.855672 -0.716905 1.510219
  H 0.696159 -0.903250 -0.252602
  H 0.523358 0.674690 0.523245
  H 4.021290 1.290809 1.161597
  H 3.727075 -0.157619 2.105035
  H 1.648593 0.798160 3.031029
  H 1.804514 2.207603 1.981524
  H 2.545572 -0.798399 -1.538591
  H 5.171421 0.008245 -0.158552
  H 4.876883 -2.280630 -3.593567
  H 4.878863 -0.633931 -4.157532
  H 6.961298 -0.643753 -1.312922
 23
 1.972697
  C 1.136380 -0.438134 0.612362
  C 2.534508 -0.015533 0.416420
  C 3.242046 0.582149 1.576084
  C 2.376158 1.511166 2.429862
  H 2.985648 1.958084 3.211132
  C 3.152321 -0.254841 -0.801785
  C 4.522592 -0.148098 -1.045610
  C 5.179222 -0.780585 -2.101739
  C 4.533545 -1.284343 -3.331381
  H 3.453057 -1.249802 -3.293910
  O 6.466204 -1.017309 -2.046459
  H 0.997229 -0.880212 1.596846
  H 0.806294 -1.130763 -0.156871
  H 0.482715 0.436645 0.572584
  H 4.129505 1.126940 1.256835
  H 3.580176 -0.242469 2.214789
  H 1.556465 0.983566 2.907872
  H 1.965127 2.312087 1.821160
  H 2.531825 -0.673432 -1.580520
  H 5.148307 0.292658 -0.282445
  H 4.874349 -2.296642 -3.539766
  H 4.877133 -0.672610 -4.167394
  H 6.935253 -0.605772 -1.295483
 23
 6.811613
  C 1.199327 -0.610938 0.686826
  C 2.546454 -0.062079 0.424855
  C 3.269564 0.496718 1.595078
  C 2.462915 1.588508 2.314214
  H 3.042494 1.976183 3.147586
  C 3.091886 -0.174409 -0.837221
  C 4.437410 0.063596 -1.144235
  C 5.128382 -0.713766 -2.077406
  C 4.539968 -1.298225 -3.299006
  H 3.456490 -1.279135 -3.305432
  O 6.390388 -1.010618 -1.892833
  H 1.146598 -1.075949 1.668878
  H 0.893031 -1.321902 -0.077456
  H 0.470252 0.200632 0.678400
  H 4.238112 0.906887 1.318925
  H 3.443306 -0.317896 2.308565
  H 1.522640 1.207852 2.706451
  H 2.250750 2.408640 1.634903
  H 2.480247 -0.655012 -1.589020
  H 5.032527 0.652494 -0.460806
  H 4.909656 -2.310122 -3.449527
  H 4.902149 -0.710860 -4.147404
  H 6.863987 -0.475464 -1.225650
 23
 14.574328
  C 1.286215 -0.691680 0.726247
  C 2.570001 -0.047039 0.370627
  C 3.344112 0.530736 1.506668
  C 2.519781 1.562139 2.292883
  H 3.132797 1.985713 3.083753
  C 3.018124 -0.075028 -0.926388
  C 4.331715 0.273095 -1.301126
  C 5.065305 -0.670828 -2.031564
  C 4.543094 -1.431888 -3.184857
  H 3.466752 -1.388363 -3.276163
  O 6.284718 -0.988683 -1.676577
  H 1.296747 -1.060111 1.746800
  H 1.043447 -1.503752 0.045770
  H 0.477645 0.037773 0.646222
  H 4.264262 1.003083 1.177065
  H 3.611713 -0.279976 2.190246
  H 1.641631 1.118367 2.749091
  H 2.201343 2.369286 1.637100
  H 2.378132 -0.540383 -1.665541
  H 4.869323 1.014330 -0.732121
  H 4.890107 -2.465687 -3.159876
  H 4.983805 -0.984874 -4.074434
  H 6.785015 -0.322823 -1.164545
 23
 26.530254
  C 1.337759 -0.754390 0.735023
  C 2.590327 -0.069629 0.332430
  C 3.409874 0.509050 1.437141
  C 2.615727 1.543585 2.248511
  H 3.249390 1.953364 3.030562
  C 2.983432 -0.058227 -0.976772
  C 4.256780 0.410029 -1.396114
  C 4.964266 -0.678555 -1.936497
  C 4.551320 -1.406639 -3.149708
  H 3.542256 -1.171108 -3.467633
  O 6.057943 -1.113824 -1.363925
  H 1.391125 -1.102461 1.761609
  H 1.111591 -1.587607 0.076403
  H 0.495685 -0.062735 0.661766
  H 4.312991 0.983499 1.063870
  H 3.707271 -0.299599 2.111045
  H 1.742801 1.104174 2.718269
  H 2.291400 2.360233 1.607625
  H 2.332375 -0.525648 -1.703539
  H 4.763686 1.202340 -0.863855
  H 4.681719 -2.479688 -3.036772
  H 5.250044 -1.091582 -3.930021
  H 6.661754 -0.463943 -0.959561
 23
 39.713371
  C 1.435404 -0.835481 0.636693
  C 2.683809 -0.111471 0.286540
  C 3.495768 0.437471 1.410427
  C 2.684769 1.472081 2.202165
  H 3.310041 1.899723 2.982177
  C 2.995870 0.092232 -1.027817
  C 4.279987 0.606990 -1.462947
  C 4.847203 -0.642752 -1.821742
  C 4.445761 -1.419379 -3.010031
  H 3.499461 -1.103171 -3.432046
  O 5.830508 -1.150972 -1.125420
  H 1.489430 -1.246666 1.639774
  H 1.227479 -1.630597 -0.074801
  H 0.583921 -0.152773 0.600702
  H 4.407253 0.905072 1.048343
  H 3.771702 -0.373723 2.089923
  H 1.815145 1.023203 2.672462
  H 2.353011 2.274815 1.549568
  H 2.282531 -0.225740 -1.776488
  H 4.794935 1.453655 -1.043971
  H 4.440144 -2.488819 -2.808647
  H 5.234290 -1.239978 -3.744827
  H 6.541330 -0.553749 -0.826712
 23
 50.689387
  C 1.565391 -0.923022 0.594622
  C 2.776489 -0.147749 0.269964
  C 3.562966 0.427977 1.387090
  C 2.716433 1.455264 2.159520
  H 3.334748 1.925850 2.920934
  C 3.113760 0.060765 -1.060748
  C 4.319595 0.750643 -1.502090
  C 4.659189 -0.614900 -1.719166
  C 4.358879 -1.344558 -2.986465
  H 3.581550 -0.867251 -3.571488
  O 5.471410 -1.265776 -0.879023
  H 1.625283 -1.346420 1.590180
  H 1.390133 -1.709119 -0.138408
  H 0.689701 -0.274944 0.566439
  H 4.467811 0.912391 1.026608
  H 3.845367 -0.366427 2.080442
  H 1.871020 0.984411 2.650576
  H 2.347650 2.229662 1.486917
  H 2.360581 -0.187895 -1.796273
  H 4.838229 1.608124 -1.130918
  H 4.104206 -2.382428 -2.787197
  H 5.283048 -1.339965 -3.565081
  H 6.327189 -0.845277 -0.693548
 23
 56.770929
  C 1.714559 -1.013666 0.598162
  C 2.868506 -0.168243 0.288934
  C 3.611400 0.458633 1.393256
  C 2.692090 1.472829 2.104526
  H 3.266660 1.983788 2.870870
  C 3.173282 0.114713 -1.063033
  C 4.411490 0.779389 -1.477715
  C 4.513854 -0.641248 -1.661421
  C 4.307498 -1.290055 -3.001690
  H 3.660133 -0.696631 -3.640202
  O 5.176655 -1.415610 -0.741745
  H 1.784963 -1.436330 1.595877
  H 1.591025 -1.799480 -0.144585
  H 0.798680 -0.417939 0.557594
  H 4.500046 0.975417 1.032952
  H 3.906142 -0.296388 2.124639
  H 1.850630 0.979206 2.577135
  H 2.322211 2.212508 1.400801
  H 2.349075 0.036616 -1.762514
  H 5.001719 1.615099 -1.181264
  H 3.898782 -2.289639 -2.879438
  H 5.280032 -1.379660 -3.482054
  H 6.138706 -1.304708 -0.727654
 23
 65.163145
  C 1.900620 -1.082259 0.565839
  C 2.989041 -0.160846 0.281530
  C 3.681105 0.501738 1.389540
  C 2.666546 1.447046 2.073714
  H 3.193380 2.011828 2.836660
  C 3.199274 0.248597 -1.085546
  C 4.506390 0.771020 -1.486851
  C 4.363544 -0.662657 -1.663631
  C 4.266571 -1.290751 -3.023188
  H 3.810857 -0.606907 -3.731647
  O 4.800187 -1.525988 -0.647212
  H 2.009460 -1.556459 1.536200
  H 1.800072 -1.828894 -0.220179
  H 0.956898 -0.528572 0.563991
  H 4.530171 1.088919 1.043196
  H 4.017399 -0.224273 2.129276
  H 1.864882 0.891287 2.545271
  H 2.247741 2.145984 1.354877
  H 2.319241 0.399735 -1.698710
  H 5.220541 1.506431 -1.206013
  H 3.688324 -2.210738 -2.976845
  H 5.268819 -1.532729 -3.371204
  H 5.764048 -1.608312 -0.590588
 23
 71.132283
  C 1.973700 -1.100840 0.451143
  C 3.081489 -0.179779 0.215043
  C 3.760845 0.449962 1.363516
  C 2.741529 1.359809 2.082414
  H 3.257927 1.892775 2.875827
  C 3.199119 0.375576 -1.170604
  C 4.544400 0.810885 -1.539634
  C 4.243568 -0.603395 -1.705517
  C 4.273836 -1.342725 -3.005929
  H 4.002985 -0.673215 -3.816685
  O 4.451972 -1.430044 -0.526344
  H 2.071883 -1.634258 1.391062
  H 1.854658 -1.800611 -0.372607
  H 1.055812 -0.506441 0.478308
  H 4.605521 1.059058 1.047630
  H 4.099300 -0.307775 2.070184
  H 1.936853 0.781356 2.522590
  H 2.325420 2.090498 1.394518
  H 2.304204 0.665791 -1.699558
  H 5.318317 1.448498 -1.189318
  H 3.582012 -2.181568 -2.982366
  H 5.274512 -1.725203 -3.195631
  H 5.396627 -1.541899 -0.312978
 23
 66.566298
  C 1.948435 -1.083611 0.330765
  C 3.154583 -0.229172 0.131493
  C 3.803872 0.367324 1.347285
  C 2.813456 1.281835 2.081408
  H 3.317384 1.760234 2.916366
  C 3.244173 0.465092 -1.237987
  C 4.614392 0.844473 -1.556915
  C 4.231310 -0.544540 -1.750203
  C 4.335396 -1.355915 -2.994954
  H 4.181087 -0.712655 -3.855429
  O 4.249664 -1.313277 -0.475806
  H 2.010399 -1.647221 1.256557
  H 1.811787 -1.757597 -0.510002
  H 1.070895 -0.440488 0.371592
  H 4.673068 0.961692 1.068313
  H 4.103605 -0.431051 2.026099
  H 1.971674 0.719416 2.470277
  H 2.444725 2.059263 1.417438
  H 2.361642 0.834846 -1.730821
  H 5.407391 1.419971 -1.145060
  H 3.588002 -2.146341 -3.001810
  H 5.322855 -1.806973 -3.075531
  H 5.155053 -1.424100 -0.113902
 23
 62.490974
  C 1.975175 -1.052281 0.320318
  C 3.268992 -0.301828 0.113873
  C 3.821496 0.380785 1.351160
  C 2.766808 1.209030 2.081468
  H 3.236183 1.755512 2.894507
  C 3.272181 0.500272 -1.210799
  C 4.625960 0.853490 -1.602618
  C 4.240991 -0.527535 -1.793694
  C 4.307895 -1.395418 -2.996558
  H 4.272564 -0.771919 -3.884466
  O 4.255372 -1.292331 -0.467950
  H 2.005252 -1.625442 1.240738
  H 1.800716 -1.730982 -0.510092
  H 1.146697 -0.351718 0.371421
  H 4.639274 1.046356 1.070080
  H 4.206107 -0.381671 2.032990
  H 1.988015 0.584479 2.503075
  H 2.313962 1.930834 1.409180
  H 2.374989 0.931883 -1.615740
  H 5.451952 1.441746 -1.283892
  H 3.472830 -2.092025 -3.021188
  H 5.239115 -1.959392 -3.010810
  H 5.132323 -1.330641 -0.021832
