13

C 1.006684 -0.072388 0.045694
C 2.502955 -0.082651 0.025816
C 3.220396 -0.594651 -0.979911
C 4.658618 -0.604966 -0.999396
C 5.377997 -1.12085 -2.011484
H 6.4478726135927324 -1.1279925927084642 -2.0261521562909377
H 0.645474 0.393007 0.962151
H 0.61063 -1.087126 0.006488
H 0.609914 0.495403 -0.796288
H 3.001848 0.352395 0.882008
H 2.710348 -1.028305 -1.831666
H 5.16321 -0.169364 -0.145859
H 4.873194 -1.556263 -2.864959
