19
 0
 C -1.07681982 0.18987222 0.05897064
 C -1.76398273 -0.82345616 0.96618303
 C -3.25749393 -0.51584137 1.06076090
 C -1.57574065 -2.29467685 0.59216522
 C -0.87926792 -2.69436374 -0.68344049
 O -2.01933472 -3.17911347 1.33361830
 H -1.20978505 1.20648058 0.44500077
 H -1.48685587 0.16517997 -0.95651303
 H 0.00000000 0.00000000 0.00000000
 H -1.32076068 -0.71463750 1.96477683
 H -3.75045433 -0.64710349 0.09127583
 H -3.42484260 0.51374127 1.39460917
 H -3.75365672 -1.18143406 1.77550706
 H -0.46722464 -1.85170928 -1.23553829
 H -1.59335160 -3.21099818 -1.33030430
 H -0.05297791 -3.36657336 -0.43440379
 O 2.95285372 -0.16801368 -0.05299085
 H 2.00000000 0.00000000 0.00000000
 H 3.16154852 -0.59992821 0.78894261
