 19
 0.000000
  C -1.053292 0.179271 0.043627
  C -1.752395 -0.795293 0.943002
  C -3.245488 -0.567640 1.029579
  C -1.604812 -2.336412 0.620625
  C -0.931024 -2.656200 -0.663352
  O -2.050715 -3.134047 1.376798
  H -1.189981 1.182939 0.452699
  H -1.476720 0.203610 -0.959174
  H 0.017876 -0.000136 -0.009065
  H -1.302219 -0.751587 1.944622
  H -3.741091 -0.674954 0.064599
  H -3.421385 0.461052 1.349885
  H -3.710278 -1.252466 1.734465
  H -0.542939 -1.802215 -1.199261
  H -1.666457 -3.183320 -1.276074
  H -0.131187 -3.364458 -0.436758
  O 2.990545 -0.160462 -0.042897
  H 2.045623 0.022377 0.005040
  H 3.247793 -0.542633 0.800258
 19
 1.213378
  C -0.980676 0.191157 0.043814
  C -1.704124 -0.786477 0.947841
  C -3.185901 -0.556134 1.024521
  C -1.570641 -2.346164 0.620976
  C -0.904214 -2.672304 -0.668693
  O -2.023474 -3.133811 1.382597
  H -1.111465 1.205672 0.465034
  H -1.413616 0.237835 -0.960427
  H 0.079793 0.011089 -0.006442
  H -1.252185 -0.773809 1.949416
  H -3.670866 -0.646728 0.053996
  H -3.359911 0.468579 1.350365
  H -3.661774 -1.243206 1.720395
  H -0.510480 -1.828445 -1.208510
  H -1.646713 -3.196000 -1.276348
  H -0.114683 -3.396102 -0.448023
  O 2.732826 -0.191337 -0.041489
  H 1.789035 0.006894 0.002277
  H 2.994522 -0.528143 0.819945
 19
 3.377236
  C -0.955749 0.179550 0.055721
  C -1.664309 -0.768298 0.950961
  C -3.162751 -0.549560 1.017254
  C -1.512137 -2.322286 0.628023
  C -0.851464 -2.635564 -0.667233
  O -1.949770 -3.109940 1.398004
  H -1.082517 1.181556 0.451997
  H -1.386493 0.211810 -0.953687
  H 0.122859 0.002866 0.011439
  H -1.219795 -0.756059 1.952687
  H -3.642523 -0.641982 0.041204
  H -3.347196 0.489524 1.345790
  H -3.634951 -1.231355 1.707267
  H -0.468255 -1.776917 -1.215304
  H -1.593608 -3.177783 -1.272873
  H -0.050015 -3.355489 -0.453641
  O 2.514077 -0.270928 -0.048013
  H 1.578135 -0.025728 0.017907
  H 2.805876 -0.620571 0.795780
 19
 7.221352
  C -0.915181 0.190928 0.051855
  C -1.636247 -0.764277 0.954920
  C -3.125792 -0.551219 1.002774
  C -1.489812 -2.321985 0.629623
  C -0.856120 -2.636078 -0.669973
  O -1.914101 -3.110119 1.406640
  H -1.029447 1.199483 0.463668
  H -1.343769 0.228934 -0.938347
  H 0.180086 -0.005200 0.007261
  H -1.189301 -0.751889 1.964855
  H -3.588822 -0.644692 0.023469
  H -3.311410 0.464327 1.325248
  H -3.608417 -1.238196 1.690495
  H -0.481793 -1.786616 -1.220531
  H -1.607966 -3.165834 -1.259527
  H -0.049934 -3.348375 -0.469895
  O 2.370317 -0.334131 -0.052327
  H 1.429676 -0.038459 0.012568
  H 2.682047 -0.563123 0.827661
 19
 13.913783
  C -0.887175 0.194355 0.057924
  C -1.609336 -0.759824 0.961350
  C -3.112621 -0.551456 0.994324
  C -1.460816 -2.315223 0.633434
  C -0.842598 -2.626133 -0.673183
  O -1.869999 -3.105895 1.416940
  H -0.978078 1.196606 0.475256
  H -1.325605 0.237346 -0.941542
  H 0.230397 -0.017181 0.009109
  H -1.175381 -0.743105 1.964684
  H -3.565852 -0.646454 0.010424
  H -3.306764 0.478574 1.321837
  H -3.601069 -1.244408 1.679748
  H -0.481758 -1.780715 -1.226252
  H -1.593833 -3.160810 -1.249257
  H -0.036721 -3.326805 -0.485473
  O 2.254332 -0.403423 -0.056292
  H 1.309768 -0.047891 0.011342
  H 2.586737 -0.541226 0.833957
 19
 24.411287
  C -0.875847 0.197631 0.062652
  C -1.594854 -0.754345 0.966525
  C -3.094425 -0.556592 0.983883
  C -1.449064 -2.299465 0.640908
  C -0.844319 -2.617827 -0.676988
  O -1.847665 -3.087196 1.431268
  H -0.936592 1.201258 0.482052
  H -1.306578 0.240024 -0.931896
  H 0.271483 -0.026538 0.011007
  H -1.173252 -0.730284 1.964071
  H -3.532916 -0.657808 0.001909
  H -3.292575 0.464483 1.307662
  H -3.582064 -1.254661 1.666630
  H -0.487188 -1.761513 -1.245834
  H -1.602128 -3.158501 -1.242782
  H -0.032212 -3.317670 -0.496223
  O 2.186215 -0.446309 -0.053416
  H 1.211452 -0.058929 0.010597
  H 2.534916 -0.513878 0.840876
 19
 38.127565
  C -0.890544 0.209277 0.069313
  C -1.594140 -0.746547 0.970416
  C -3.100043 -0.554654 0.977873
  C -1.438459 -2.291202 0.637313
  C -0.841003 -2.617402 -0.679499
  O -1.826177 -3.084952 1.430045
  H -0.928542 1.211346 0.491415
  H -1.312609 0.251050 -0.931450
  H 0.319175 -0.020512 0.014215
  H -1.175585 -0.717989 1.978589
  H -3.532493 -0.659501 -0.008070
  H -3.305861 0.465514 1.304701
  H -3.582679 -1.256838 1.654261
  H -0.492742 -1.764169 -1.254616
  H -1.598849 -3.167415 -1.237641
  H -0.023017 -3.312359 -0.499071
  O 2.194051 -0.474730 -0.060395
  H 1.156246 -0.059218 0.009173
  H 2.547622 -0.519132 0.834307
 19
 56.446788
  C -0.920113 0.219761 0.071441
  C -1.611702 -0.740737 0.972186
  C -3.123476 -0.561197 0.975103
  C -1.445315 -2.281012 0.639755
  C -0.847948 -2.608048 -0.679661
  O -1.824421 -3.076676 1.436127
  H -0.951658 1.221796 0.492868
  H -1.337029 0.256591 -0.928197
  H 0.391979 -0.021191 0.011231
  H -1.197712 -0.705321 1.980345
  H -3.554007 -0.672492 -0.015755
  H -3.339504 0.455639 1.301617
  H -3.600176 -1.269207 1.651708
  H -0.509789 -1.756389 -1.256878
  H -1.602753 -3.167201 -1.234489
  H -0.022772 -3.296677 -0.500031
  O 2.290560 -0.496358 -0.069120
  H 1.151282 -0.049397 0.006784
  H 2.645218 -0.528775 0.824666
 19
 78.540190
  C -0.966251 0.233204 0.076353
  C -1.639255 -0.734971 0.974679
  C -3.157111 -0.567519 0.969933
  C -1.456105 -2.273315 0.641071
  C -0.858689 -2.599539 -0.678448
  O -1.821732 -3.073624 1.441679
  H -0.989379 1.234546 0.499800
  H -1.377087 0.266384 -0.926765
  H 0.470950 -0.021595 0.007327
  H -1.230071 -0.690459 1.991780
  H -3.582828 -0.685173 -0.024148
  H -3.386991 0.446180 1.297011
  H -3.626981 -1.280117 1.643582
  H -0.534938 -1.747596 -1.259658
  H -1.607474 -3.172460 -1.228263
  H -0.023007 -3.277495 -0.499143
  O 2.431136 -0.520103 -0.082969
  H 1.165728 -0.038464 0.003147
  H 2.786299 -0.541703 0.809444
 19
 99.451866
  C -1.065058 0.254450 0.088346
  C -1.687493 -0.732366 0.984375
  C -3.222583 -0.584582 0.961806
  C -1.470471 -2.250587 0.645609
  C -0.875284 -2.572411 -0.676800
  O -1.809614 -3.061796 1.450146
  H -1.056559 1.255890 0.491252
  H -1.441829 0.264838 -0.919774
  H 0.557233 -0.017810 0.004787
  H -1.294736 -0.662674 2.006110
  H -3.636838 -0.707243 -0.042888
  H -3.474088 0.426910 1.292183
  H -3.678946 -1.305771 1.649116
  H -0.574690 -1.720073 -1.264649
  H -1.608868 -3.174400 -1.214701
  H -0.025697 -3.234007 -0.502722
  O 2.680014 -0.589761 -0.101162
  H 1.225291 -0.026839 -0.002978
  H 3.043599 -0.568917 0.784227
 19
 110.190186
  C -1.263565 0.300268 0.154968
  C -1.786777 -0.729389 1.020597
  C -3.328655 -0.610139 0.921082
  C -1.511287 -2.231862 0.665683
  C -0.888230 -2.540083 -0.639981
  O -1.821540 -3.059847 1.471515
  H -1.171382 1.302182 0.539300
  H -1.558234 0.285515 -0.880470
  H 0.620791 0.008231 -0.001000
  H -1.450149 -0.629376 2.056052
  H -3.682063 -0.731755 -0.096341
  H -3.629694 0.392564 1.254775
  H -3.763406 -1.350237 1.583395
  H -0.609853 -1.674860 -1.228080
  H -1.586845 -3.162359 -1.192460
  H -0.008599 -3.169629 -0.453234
  O 3.130372 -0.711685 -0.213074
  H 1.332831 0.005504 -0.032638
  H 3.507578 -0.651120 0.672612
 19
 118.079191
  C -1.369370 0.314268 0.162570
  C -1.844170 -0.716679 1.025878
  C -3.397991 -0.623812 0.904284
  C -1.530015 -2.214464 0.685466
  C -0.941554 -2.511991 -0.638060
  O -1.816578 -3.038506 1.502106
  H -1.245865 1.318298 0.552023
  H -1.623063 0.279480 -0.890933
  H 0.694563 0.033181 -0.001832
  H -1.514662 -0.601510 2.068922
  H -3.738891 -0.786126 -0.111580
  H -3.736507 0.359247 1.230448
  H -3.808491 -1.384019 1.566551
  H -0.707086 -1.639750 -1.235630
  H -1.638584 -3.155912 -1.167038
  H -0.042516 -3.108849 -0.481649
  O 3.446180 -0.759421 -0.224840
  H 1.395191 0.055621 -0.028178
  H 3.833995 -0.684251 0.651528
 19
 119.952411
  C -1.518686 0.333212 0.183788
  C -1.913927 -0.713484 1.047389
  C -3.471388 -0.636737 0.861892
  C -1.572317 -2.206932 0.708763
  C -1.006224 -2.499051 -0.628646
  O -1.825544 -3.023837 1.541245
  H -1.348121 1.317864 0.591142
  H -1.735755 0.294595 -0.877150
  H 0.747817 0.081034 -0.007730
  H -1.616876 -0.579839 2.100296
  H -3.779152 -0.815766 -0.167653
  H -3.843615 0.333340 1.188563
  H -3.883265 -1.413076 1.521449
  H -0.807307 -1.625377 -1.239326
  H -1.695973 -3.159287 -1.135416
  H -0.084717 -3.068622 -0.492390
  O 3.837117 -0.817218 -0.256136
  H 1.465375 0.153339 -0.029953
  H 4.260144 -0.718840 0.598784
 19
 121.924128
  C -1.636153 0.342958 0.193776
  C -1.982308 -0.723899 1.051779
  C -3.542956 -0.635863 0.843496
  C -1.613150 -2.204435 0.710304
  C -1.052038 -2.483359 -0.628379
  O -1.823642 -3.024500 1.553026
  H -1.456117 1.331315 0.600750
  H -1.817286 0.279350 -0.871747
  H 0.787268 0.118903 -0.017137
  H -1.701287 -0.590544 2.102274
  H -3.843176 -0.804935 -0.185613
  H -3.920793 0.336023 1.160937
  H -3.961020 -1.403061 1.498834
  H -0.884932 -1.606804 -1.239636
  H -1.719487 -3.180539 -1.128538
  H -0.103296 -3.009759 -0.493522
  O 4.106289 -0.844325 -0.280666
  H 1.484034 0.227259 -0.035305
  H 4.543352 -0.741158 0.567261
