 23
 0.000000
  C 1.009057 0.126786 0.395285
  C 2.477197 0.123191 0.393948
  H 3.040564 0.484914 1.238780
  C 3.097842 -0.354392 -0.735655
  C 4.469302 -0.441106 -0.976090
  C 5.133515 -0.881037 -2.119794
  C 4.614923 -1.385888 -3.418052
  C 3.120485 -1.499696 -3.693454
  C 2.886141 -2.044384 -5.100279
  O 6.449993 -0.875717 -2.125455
  H 0.579925 0.523470 1.310766
  H 0.635936 -0.888714 0.251645
  H 0.633833 0.715909 -0.448835
  H 2.431240 -0.680486 -1.518968
  H 5.104224 -0.119303 -0.155724
  H 5.071425 -2.371931 -3.563472
  H 5.063585 -0.750646 -4.190744
  H 2.645923 -0.520433 -3.623230
  H 2.653940 -2.181484 -2.981696
  H 3.317839 -1.386933 -5.851220
  H 1.820275 -2.125680 -5.297193
  H 3.325896 -3.032224 -5.215587
  H 6.848147 -0.552446 -1.294614
 23
 -1.261369
  C 1.005690 0.208665 0.522907
  C 2.450190 0.058759 0.369474
  H 3.097209 0.426613 1.153793
  C 2.998302 -0.454866 -0.784173
  C 4.380088 -0.486516 -0.999511
  C 5.094003 -0.881341 -2.129988
  C 4.613702 -1.381633 -3.442193
  C 3.130185 -1.571109 -3.727216
  C 2.940238 -2.098307 -5.147330
  O 6.401724 -0.816568 -2.106127
  H 0.710230 0.469383 1.532665
  H 0.465852 -0.668243 0.167324
  H 0.709865 1.018894 -0.153064
  H 2.321982 -0.823012 -1.537053
  H 4.985284 -0.140095 -0.167317
  H 5.132968 -2.332672 -3.611418
  H 5.037106 -0.706986 -4.196499
  H 2.603712 -0.620469 -3.641607
  H 2.700844 -2.293638 -3.033109
  H 3.345214 -1.403181 -5.878896
  H 1.883497 -2.234077 -5.361662
  H 3.435631 -3.057437 -5.277095
  H 6.788883 -0.495102 -1.270933
 23
 0.883413
  C 1.009552 0.176290 0.553907
  C 2.453501 0.057673 0.369404
  H 3.103217 0.358094 1.180742
  C 2.992583 -0.425805 -0.799466
  C 4.371965 -0.428839 -1.024545
  C 5.092173 -0.846847 -2.142311
  C 4.620576 -1.383729 -3.446158
  C 3.136555 -1.579235 -3.730209
  C 2.948026 -2.126476 -5.143353
  O 6.405571 -0.785281 -2.112435
  H 0.672915 0.234042 1.579580
  H 0.419402 -0.471815 -0.083634
  H 0.943627 1.177252 0.096830
  H 2.319102 -0.799824 -1.549525
  H 4.972485 -0.054538 -0.201764
  H 5.138504 -2.340168 -3.584461
  H 5.045623 -0.725533 -4.213782
  H 2.609132 -0.627502 -3.657687
  H 2.707744 -2.292160 -3.025678
  H 3.360163 -1.443981 -5.883218
  H 1.890852 -2.259156 -5.359915
  H 3.439034 -3.090649 -5.257573
  H 6.786180 -0.437854 -1.282567
 23
 10.329773
  C 1.010261 0.106396 0.636642
  C 2.428982 0.087723 0.348573
  H 3.107457 0.372137 1.145181
  C 2.964089 -0.413793 -0.817750
  C 4.342277 -0.398327 -1.040732
  C 5.069228 -0.846062 -2.137245
  C 4.614096 -1.374014 -3.455589
  C 3.130836 -1.584560 -3.754330
  C 2.961212 -2.153830 -5.164718
  O 6.387647 -0.820443 -2.084338
  H 0.682423 0.206837 1.657788
  H 0.351407 -0.403955 -0.056922
  H 1.152405 1.164088 0.230170
  H 2.294778 -0.766676 -1.585505
  H 4.939768 -0.014021 -0.217707
  H 5.133759 -2.333899 -3.582264
  H 5.049485 -0.719742 -4.220806
  H 2.599530 -0.636581 -3.704982
  H 2.697378 -2.289890 -3.041264
  H 3.391323 -1.484067 -5.909249
  H 1.903602 -2.284351 -5.397933
  H 3.449878 -3.123767 -5.255783
  H 6.756058 -0.427613 -1.266854
 23
 27.081262
  C 0.997926 0.065012 0.681147
  C 2.385736 0.118793 0.342024
  H 3.083145 0.410757 1.121265
  C 2.946814 -0.440061 -0.816973
  C 4.322646 -0.439224 -1.028584
  C 5.049244 -0.844110 -2.135463
  C 4.604729 -1.374364 -3.458167
  C 3.127042 -1.595855 -3.753878
  C 2.957154 -2.144161 -5.168567
  O 6.378612 -0.760165 -2.104541
  H 0.647581 0.349431 1.657048
  H 0.297458 -0.391905 0.000635
  H 1.550680 1.083302 0.098085
  H 2.279150 -0.837066 -1.560695
  H 4.920533 -0.064549 -0.203420
  H 5.141484 -2.318548 -3.603714
  H 5.019691 -0.695199 -4.211859
  H 2.584103 -0.653335 -3.683292
  H 2.707871 -2.317833 -3.052857
  H 3.356331 -1.450139 -5.904851
  H 1.905056 -2.304142 -5.390196
  H 3.474242 -3.094336 -5.281598
  H 6.733206 -0.412828 -1.267505
 23
 32.540619
  C 0.988029 -0.005044 0.709539
  C 2.365251 0.179113 0.342796
  H 3.056953 0.464688 1.131242
  C 2.950121 -0.417404 -0.828380
  C 4.314742 -0.424835 -1.031685
  C 5.043225 -0.846220 -2.136192
  C 4.595846 -1.384552 -3.453807
  C 3.115939 -1.587251 -3.753225
  C 2.943570 -2.142319 -5.164579
  O 6.369416 -0.779028 -2.098248
  H 0.632730 0.308054 1.673112
  H 0.291698 -0.458536 0.026446
  H 1.826895 1.133502 -0.027146
  H 2.275395 -0.829895 -1.558237
  H 4.914663 -0.047844 -0.209415
  H 5.118795 -2.338159 -3.587055
  H 5.024108 -0.720149 -4.213276
  H 2.585821 -0.636044 -3.690833
  H 2.683467 -2.299126 -3.049033
  H 3.355284 -1.459075 -5.903916
  H 1.890234 -2.288281 -5.389212
  H 3.447226 -3.100409 -5.269338
  H 6.725603 -0.430101 -1.262041
 23
 31.096026
  C 0.991451 -0.047087 0.712352
  C 2.359087 0.219582 0.342807
  H 3.042146 0.436302 1.161470
  C 2.952948 -0.377113 -0.845667
  C 4.310860 -0.401628 -1.039521
  C 5.040982 -0.848696 -2.139637
  C 4.586926 -1.396965 -3.449089
  C 3.104399 -1.577456 -3.754006
  C 2.930512 -2.148488 -5.159491
  O 6.360689 -0.803825 -2.093206
  H 0.626652 0.232761 1.681941
  H 0.304233 -0.486821 0.012248
  H 2.024638 1.215966 -0.063149
  H 2.271259 -0.771902 -1.578281
  H 4.913214 -0.024172 -0.219255
  H 5.094262 -2.361681 -3.568128
  H 5.030974 -0.751237 -4.216468
  H 2.590120 -0.617202 -3.707610
  H 2.655568 -2.272358 -3.043372
  H 3.357880 -1.482639 -5.905581
  H 1.876314 -2.279016 -5.388166
  H 3.417157 -3.116406 -5.248808
  H 6.723407 -0.450555 -1.259823
 23
 29.681233
  C 0.988925 -0.095848 0.696919
  C 2.340327 0.265925 0.331761
  H 3.014373 0.355941 1.180762
  C 2.948401 -0.339134 -0.861369
  C 4.300954 -0.352287 -1.054387
  C 5.035399 -0.835119 -2.143510
  C 4.578297 -1.412067 -3.436373
  C 3.096217 -1.569459 -3.751292
  C 2.925115 -2.156087 -5.149814
  O 6.349245 -0.806449 -2.086980
  H 0.610012 0.100632 1.682749
  H 0.320740 -0.509587 -0.033923
  H 2.197778 1.311368 -0.032290
  H 2.266953 -0.731976 -1.594511
  H 4.903081 0.046471 -0.244780
  H 5.068952 -2.391500 -3.527012
  H 5.041707 -0.799135 -4.216789
  H 2.598529 -0.600262 -3.722504
  H 2.627665 -2.247600 -3.035343
  H 3.368238 -1.507868 -5.900718
  H 1.872285 -2.272370 -5.384931
  H 3.395447 -3.131756 -5.222208
  H 6.717040 -0.432470 -1.261896
 23
 29.035015
  C 0.973878 -0.084829 0.665100
  C 2.343072 0.247561 0.342926
  H 3.003074 0.215376 1.216748
  C 2.946327 -0.321986 -0.869323
  C 4.299170 -0.344117 -1.060261
  C 5.032883 -0.819753 -2.153144
  C 4.576223 -1.407455 -3.439905
  C 3.094758 -1.571729 -3.751868
  C 2.923650 -2.173796 -5.145600
  O 6.347594 -0.776753 -2.103859
  H 0.556325 0.202579 1.611979
  H 0.331330 -0.557982 -0.052848
  H 2.292989 1.334499 0.118237
  H 2.265459 -0.695998 -1.612270
  H 4.903396 0.046565 -0.247640
  H 5.067407 -2.384270 -3.521052
  H 5.038172 -0.801051 -4.227042
  H 2.594373 -0.602750 -3.732316
  H 2.629388 -2.242128 -3.029656
  H 3.363566 -1.530132 -5.905069
  H 1.869172 -2.297001 -5.378175
  H 3.398776 -3.149801 -5.209068
  H 6.714698 -0.395684 -1.284333
