10

H -1.3126182368595303 -0.4873690141145162 0.6179627377976622
C -0.863222 0.279194 0.021872
H -1.172372635695985 0.18000890638514264 -0.9976809420551837
C -1.198902 1.6591 0.409633
H -2.081576768116312 1.9206852042328482 0.9549388175531176
H -0.5871745146562727 2.4738761148980695 0.08278538066241364
H 0.224828 0.140625 0.049957
O 2.219118 -0.264571 -0.249324
H 2.7395 0.177412 0.426101
H 2.833079 -0.510784 -0.947527
