 20
 0.000000
  C 0.997219 0.120312 0.350259
  C 2.502983 0.102608 0.305821
  C 3.242584 0.590699 1.520998
  H 2.552199 0.903514 2.300055
  C 3.126032 -0.339606 -0.795527
  C 4.551896 -0.413508 -0.979980
  C 5.190832 -0.852402 -2.073711
  C 4.586366 -1.361966 -3.343303
  H 3.503248 -1.348099 -3.309371
  O 6.558446 -0.878778 -2.139692
  H 0.630833 0.501522 1.299598
  H 0.596838 -0.883887 0.208520
  H 0.596688 0.747492 -0.446623
  H 3.879578 1.439262 1.270804
  H 3.879718 -0.195101 1.927190
  H 2.511610 -0.671521 -1.621869
  H 5.160208 -0.079208 -0.147149
  H 4.929320 -2.380150 -3.521265
  H 4.929687 -0.749589 -4.175849
  H 6.933154 -0.546441 -1.311514
 20
 0.124314
  C 0.994421 0.180504 0.340393
  C 2.494750 0.075523 0.307626
  C 3.244904 0.513855 1.535229
  H 2.559804 0.796018 2.330320
  C 3.110813 -0.368125 -0.796079
  C 4.536801 -0.432595 -0.977679
  C 5.186964 -0.841519 -2.076239
  C 4.596187 -1.394662 -3.332237
  H 3.515595 -1.455098 -3.273334
  O 6.553216 -0.789451 -2.154057
  H 0.650130 0.669351 1.248094
  H 0.537823 -0.809161 0.293875
  H 0.630607 0.748819 -0.515190
  H 3.879234 1.372926 1.315484
  H 3.883039 -0.287634 1.906469
  H 2.497680 -0.669961 -1.632923
  H 5.137726 -0.076054 -0.150021
  H 5.002965 -2.388370 -3.512845
  H 4.878765 -0.764697 -4.174216
  H 6.907188 -0.384145 -1.352775
 20
 1.602767
  C 0.993584 0.223525 0.378575
  C 2.485183 0.047939 0.296088
  C 3.282665 0.507917 1.486319
  H 2.626447 0.847093 2.283590
  C 3.059325 -0.457186 -0.803646
  C 4.484707 -0.527585 -0.975550
  C 5.177386 -0.860227 -2.072996
  C 4.648653 -1.383106 -3.366073
  H 3.571999 -1.502122 -3.327506
  O 6.541944 -0.707886 -2.078214
  H 0.703598 0.750026 1.283017
  H 0.490074 -0.744111 0.371936
  H 0.626300 0.786152 -0.479322
  H 3.940388 1.334999 1.217957
  H 3.897621 -0.299949 1.882049
  H 2.434104 -0.768094 -1.628330
  H 5.067485 -0.260202 -0.101697
  H 5.111273 -2.345795 -3.579307
  H 4.910760 -0.704074 -4.176409
  H 6.763643 -0.223812 -1.272206
 20
 6.766113
  C 0.999156 0.249644 0.353428
  C 2.491649 0.065928 0.287517
  C 3.283007 0.485399 1.496561
  H 2.626138 0.792744 2.305208
  C 3.060224 -0.431977 -0.817190
  C 4.482439 -0.496690 -0.979573
  C 5.175901 -0.846756 -2.076366
  C 4.674536 -1.458112 -3.341266
  H 3.607506 -1.645566 -3.284532
  O 6.521336 -0.533999 -2.089147
  H 0.697246 0.733222 1.279270
  H 0.492640 -0.715250 0.297480
  H 0.648025 0.855724 -0.479394
  H 3.936520 1.322435 1.251628
  H 3.913102 -0.326781 1.859715
  H 2.439452 -0.702445 -1.657305
  H 5.049878 -0.425774 -0.062442
  H 5.199647 -2.399565 -3.501211
  H 4.887265 -0.814238 -4.195312
  H 6.601070 0.011296 -1.294408
 20
 15.481140
  C 1.026808 0.259483 0.367312
  C 2.521973 0.074599 0.309341
  C 3.323101 0.493196 1.510141
  H 2.666789 0.855862 2.302081
  C 3.060891 -0.438356 -0.807126
  C 4.466059 -0.637757 -0.947236
  C 5.160328 -0.879534 -2.086891
  C 4.671322 -1.374352 -3.399806
  H 3.618992 -1.628064 -3.341593
  O 6.489707 -0.501929 -2.043412
  H 0.712733 0.824470 1.236041
  H 0.536575 -0.715693 0.392204
  H 0.664247 0.749873 -0.537840
  H 3.974659 1.328531 1.244166
  H 3.945944 -0.311909 1.897684
  H 2.422733 -0.639061 -1.661080
  H 5.004067 -0.791120 -0.017894
  H 5.232635 -2.273095 -3.649066
  H 4.837887 -0.648890 -4.196264
  H 6.445171 -0.021623 -1.204570
 20
 28.964553
  C 1.031587 0.280775 0.414015
  C 2.520279 0.120921 0.261606
  C 3.346669 0.425802 1.476895
  H 2.718516 0.703052 2.324289
  C 3.031948 -0.319378 -0.884718
  C 4.442807 -0.472763 -1.043324
  C 5.158707 -0.834710 -2.128549
  C 4.723891 -1.502906 -3.361631
  H 3.654141 -1.682539 -3.351005
  O 6.479758 -0.429605 -1.992856
  H 0.783513 0.668051 1.392786
  H 0.514204 -0.665672 0.275646
  H 0.644680 0.995168 -0.321741
  H 4.055158 1.232244 1.292149
  H 3.914437 -0.463035 1.774153
  H 2.400730 -0.486075 -1.738561
  H 4.961218 -0.626164 -0.093408
  H 5.278627 -2.420760 -3.487412
  H 4.956253 -0.873383 -4.220739
  H 6.198963 0.085718 -1.206190
 20
 57.928987
  C 1.066370 0.333814 0.337350
  C 2.558396 0.141371 0.299774
  C 3.337766 0.403909 1.557336
  H 2.678050 0.666599 2.379409
  C 3.158498 -0.255495 -0.828930
  C 4.582216 -0.480504 -0.991031
  C 5.227983 -0.856224 -2.184878
  C 4.666177 -1.515128 -3.390811
  H 3.618893 -1.762845 -3.249571
  O 6.451974 -0.450776 -2.152988
  H 0.744941 0.749362 1.288397
  H 0.554042 -0.618145 0.192691
  H 0.740385 1.005099 -0.456287
  H 4.040607 1.224295 1.406528
  H 3.912891 -0.473259 1.855231
  H 2.557150 -0.385537 -1.720163
  H 5.071894 -0.855407 -0.090766
  H 5.230560 -2.424169 -3.595355
  H 4.780114 -0.862677 -4.256026
  H 5.915841 0.159348 -1.011250
 20
 27.810285
  C 1.136850 0.252356 0.243363
  C 2.642607 0.140810 0.338176
  C 3.337314 0.515763 1.610079
  H 2.603643 0.734273 2.377923
  C 3.330627 -0.236509 -0.748991
  C 4.782249 -0.530394 -0.915917
  C 5.336240 -0.909808 -2.249849
  C 4.573928 -1.487044 -3.399796
  H 3.528697 -1.633389 -3.162587
  O 6.514351 -0.646844 -2.311388
  H 0.694610 0.707705 1.135834
  H 0.690916 -0.731879 0.064183
  H 0.864294 0.848865 -0.627402
  H 3.976854 1.386800 1.479051
  H 3.909449 -0.323181 2.006494
  H 2.753948 -0.371759 -1.658271
  H 5.211564 -1.074707 -0.053198
  H 5.056132 -2.415826 -3.718368
  H 4.643471 -0.799793 -4.249596
  H 5.694685 0.175182 -0.832491
 20
 8.858599
  C 1.128090 0.325440 0.191697
  C 2.631350 0.191698 0.265893
  C 3.305459 0.385989 1.594608
  H 2.599174 0.643039 2.385148
  C 3.332247 -0.138035 -0.818990
  C 4.807114 -0.398680 -0.919500
  C 5.384368 -0.897582 -2.228455
  C 4.550502 -1.563478 -3.281451
  H 3.548398 -1.797310 -2.944547
  O 6.524421 -0.551012 -2.441127
  H 0.721196 0.661343 1.143852
  H 0.672115 -0.647645 -0.027368
  H 0.826062 1.035929 -0.579544
  H 4.043645 1.184777 1.520875
  H 3.865955 -0.511850 1.872919
  H 2.800847 -0.240372 -1.753345
  H 5.226449 -0.928645 -0.044999
  H 5.031827 -2.504816 -3.550235
  H 4.541370 -0.938959 -4.172490
  H 5.500605 0.454805 -0.819420
 20
 1.038883
  C 1.165408 0.357957 0.181142
  C 2.659517 0.196762 0.254376
  C 3.342060 0.425339 1.574053
  H 2.623285 0.626000 2.364816
  C 3.338717 -0.153230 -0.834401
  C 4.803852 -0.440244 -0.900944
  C 5.411319 -0.897112 -2.210584
  C 4.566472 -1.541250 -3.276083
  H 3.534225 -1.670258 -2.985156
  O 6.588531 -0.688431 -2.387862
  H 0.759960 0.709964 1.126831
  H 0.695279 -0.595015 -0.057052
  H 0.887180 1.069002 -0.596266
  H 4.022413 1.273859 1.502566
  H 3.935813 -0.445039 1.859761
  H 2.786306 -0.264461 -1.754241
  H 5.100674 -1.149331 -0.116852
  H 4.992583 -2.514246 -3.510431
  H 4.626325 -0.936086 -4.177367
  H 5.414817 0.440060 -0.659024
 20
 0.776876
  C 1.142735 0.299079 0.253025
  C 2.640537 0.156649 0.261243
  C 3.384426 0.596471 1.488460
  H 2.701916 0.885441 2.282815
  C 3.272192 -0.372263 -0.785446
  C 4.747668 -0.610032 -0.842259
  C 5.420806 -1.031704 -2.133560
  C 4.624808 -1.312982 -3.382367
  H 3.555304 -1.210674 -3.255156
  O 6.626981 -1.105052 -2.148186
  H 0.790391 0.815854 1.141280
  H 0.669066 -0.681453 0.218093
  H 0.810589 0.856591 -0.621580
  H 4.021356 1.450901 1.257971
  H 4.026571 -0.201110 1.860514
  H 2.682818 -0.652305 -1.644847
  H 5.025058 -1.359499 -0.089395
  H 4.854174 -2.323207 -3.717065
  H 4.963706 -0.631393 -4.160608
  H 5.294980 0.292278 -0.537513
 20
 0.599871
  C 1.121827 0.276763 0.268376
  C 2.610352 0.089727 0.248808
  C 3.383904 0.668157 1.401664
  H 2.719437 0.982150 2.200870
  C 3.219718 -0.572358 -0.727461
  C 4.715053 -0.686046 -0.792942
  C 5.397174 -1.064309 -2.093921
  C 4.616654 -1.139849 -3.383363
  H 3.556992 -0.948399 -3.269488
  O 6.591194 -1.266149 -2.086111
  H 0.818752 0.939080 1.073619
  H 0.618699 -0.676883 0.399987
  H 0.772889 0.702140 -0.674672
  H 3.954554 1.542097 1.075543
  H 4.088940 -0.056864 1.804572
  H 2.629621 -0.977211 -1.538942
  H 5.050123 -1.441044 -0.071096
  H 4.774684 -2.121731 -3.831134
  H 5.035285 -0.404671 -4.069587
  H 5.156820 0.253264 -0.462865
 20
 -4.336747
  C 1.147220 -0.005481 0.226008
  C 2.649212 -0.027352 0.186738
  C 3.345038 0.930323 1.110860
  H 2.639116 1.363690 1.811122
  C 3.299280 -0.875852 -0.601552
  C 4.789159 -1.029899 -0.682330
  C 5.285776 -1.331470 -2.080626
  C 4.662277 -0.497833 -3.177071
  H 4.204763 0.403518 -2.782712
  O 6.127579 -2.164464 -2.297670
  H 0.779651 1.016544 0.256327
  H 0.792697 -0.512894 1.123393
  H 0.721998 -0.506520 -0.638762
  H 3.804268 1.744058 0.545645
  H 4.129140 0.428964 1.677722
  H 2.733449 -1.554108 -1.227237
  H 5.126348 -1.827610 -0.016686
  H 3.895597 -1.094052 -3.668082
  H 5.412884 -0.251311 -3.924707
  H 5.287216 -0.110390 -0.368526
