 6
 0.000000
  H 3.596224 -0.602082 -0.993931
  C 4.673382 -0.608621 -1.006762
  C 5.361725 -1.117998 -2.006750
  H 6.438858 -1.124257 -2.019043
  H 5.162211 -0.173234 -0.152025
  H 4.873006 -1.553420 -2.861556
 6
 5.080642
  H 3.594379 -0.696108 -0.953925
  C 4.677954 -0.711649 -0.935326
  C 5.365420 -1.104818 -1.994148
  H 6.429530 -1.285806 -1.967240
  H 5.132124 -0.063409 -0.214358
  H 4.852686 -1.460524 -2.871940
 6
 17.560782
  H 3.615108 -0.665250 -0.992702
  C 4.692115 -0.771017 -0.881862
  C 5.379812 -1.131764 -1.972554
  H 6.446764 -1.323390 -1.954248
  H 5.114002 0.037416 -0.350399
  H 4.857582 -1.325632 -2.888353
 6
 41.091172
  H 3.582328 -0.734072 -0.917243
  C 4.647839 -0.850156 -0.798559
  C 5.337659 -1.138361 -1.929288
  H 6.395229 -1.341670 -1.888233
  H 5.171169 0.070664 -0.585389
  H 4.970477 -1.184993 -2.922109
 6
 63.438054
  H 3.541711 -0.779168 -0.939675
  C 4.607693 -0.945335 -0.757957
  C 5.370760 -1.038366 -1.900616
  H 6.411960 -1.323358 -1.843814
  H 5.203853 0.008569 -0.720959
  H 4.971746 -1.096258 -2.884665
 6
 77.591253
  H 3.512675 -0.836331 -0.906727
  C 4.572750 -1.024200 -0.678031
  C 5.355077 -0.990752 -1.837567
  H 6.400478 -1.278910 -1.784050
  H 5.286721 -0.035640 -1.007258
  H 4.985082 -0.937805 -2.868863
 6
 76.725216
  H 3.496450 -0.847373 -0.878155
  C 4.556854 -1.043554 -0.650850
  C 5.342688 -0.989000 -1.815566
  H 6.387456 -1.284977 -1.763494
  H 5.311886 -0.009147 -1.114650
  H 4.981430 -0.908998 -2.851416
 6
 71.195115
  H 3.457576 -0.931261 -0.901660
  C 4.507353 -1.167992 -0.645102
  C 5.367403 -0.890213 -1.766163
  H 6.349028 -1.354564 -1.732984
  H 5.481848 0.145573 -1.379256
  H 4.973035 -0.822666 -2.784727
 6
 70.696353
  H 3.439777 -0.977505 -0.907116
  C 4.491364 -1.191369 -0.640917
  C 5.363924 -0.851727 -1.749499
  H 6.322091 -1.368976 -1.718338
  H 5.558498 0.185449 -1.427877
  H 4.960587 -0.816996 -2.766145
