 19
 0.000000
  C 0.964387 0.043377 0.190772
  C 2.466492 0.046214 0.171518
  C 3.255453 -0.030886 1.458069
  C 2.452464 -0.081677 2.752456
  H 3.136227 -0.133683 3.596617
  C 3.097603 0.117829 -1.010075
  H 2.529781 0.153638 -1.931311
  C 4.528425 0.131018 -1.211033
  C 5.091038 0.198766 -2.412609
  H 6.158104 0.207748 -2.545846
  H 0.559507 -0.021259 1.193302
  H 0.585158 -0.800001 -0.385255
  H 0.584004 0.953136 -0.272427
  H 3.921083 0.835611 1.505406
  H 3.888960 -0.923357 1.414259
  H 1.812438 -0.959771 2.786582
  H 1.840252 0.808805 2.871626
  H 5.162622 0.083124 -0.337634
  H 4.502213 0.247866 -3.312996
 19
 -0.006708
  C 0.971610 0.173123 0.193210
  C 2.476139 0.145931 0.185875
  C 3.243024 0.141479 1.486092
  C 2.459645 -0.249627 2.733521
  H 3.136478 -0.287040 3.584688
  C 3.111317 0.108951 -0.994278
  H 2.519658 0.079766 -1.900684
  C 4.536037 0.123618 -1.214649
  C 5.084919 0.068706 -2.425637
  H 6.150837 0.088211 -2.571917
  H 0.561496 0.229915 1.194127
  H 0.576385 -0.723480 -0.286851
  H 0.611093 1.032824 -0.373275
  H 3.677328 1.134715 1.643601
  H 4.071817 -0.563362 1.372254
  H 2.007055 -1.233303 2.614646
  H 1.680051 0.473993 2.964954
  H 5.177762 0.197191 -0.348431
  H 4.482777 0.003553 -3.317210
 19
 0.599859
  C 0.956268 0.316221 0.198009
  C 2.456829 0.249193 0.196705
  C 3.209863 0.298233 1.503443
  C 2.520491 -0.423440 2.659854
  H 3.172406 -0.417102 3.531007
  C 3.103853 0.079740 -0.963449
  H 2.531892 -0.076975 -1.871396
  C 4.528367 0.135735 -1.195883
  C 5.074348 -0.077123 -2.389013
  H 6.136045 -0.006711 -2.551318
  H 0.556600 0.485583 1.191536
  H 0.529871 -0.607848 -0.191203
  H 0.621435 1.127870 -0.447387
  H 3.405858 1.335441 1.789190
  H 4.156123 -0.209881 1.315389
  H 2.313776 -1.457139 2.392694
  H 1.586910 0.055705 2.942967
  H 5.170365 0.395631 -0.365819
  H 4.474797 -0.329152 -3.248529
 19
 1.898407
  C 0.923442 0.474102 0.210084
  C 2.416122 0.320080 0.208244
  C 3.152567 0.449147 1.514314
  C 2.638919 -0.578453 2.528928
  H 3.246053 -0.541452 3.430990
  C 3.076863 0.006758 -0.914527
  H 2.540958 -0.311482 -1.803134
  C 4.494045 0.162814 -1.168872
  C 5.076250 -0.226631 -2.301810
  H 6.120461 -0.050072 -2.496153
  H 0.559145 0.770007 1.189636
  H 0.428427 -0.453565 -0.077050
  H 0.632312 1.237398 -0.510638
  H 3.067401 1.451821 1.936020
  H 4.186945 0.181713 1.293994
  H 2.701033 -1.580381 2.110734
  H 1.606245 -0.387141 2.809294
  H 5.092808 0.665250 -0.420739
  H 4.523349 -0.729810 -3.078998
 19
 11.829009
  C 0.911852 0.575972 0.150361
  C 2.371998 0.252483 0.226872
  C 3.124662 0.467661 1.516890
  C 2.709378 -0.626404 2.515763
  H 3.329340 -0.563521 3.407494
  C 3.089384 -0.204006 -0.815239
  H 2.615913 -0.726316 -1.643978
  C 4.436731 0.196165 -1.152758
  C 5.069626 -0.208449 -2.255113
  H 6.025568 0.197162 -2.541473
  H 0.568547 1.019051 1.081662
  H 0.304916 -0.308689 -0.052766
  H 0.741227 1.280298 -0.661901
  H 2.982963 1.447461 1.964419
  H 4.135296 0.168362 1.215544
  H 2.833899 -1.610054 2.070876
  H 1.669556 -0.515827 2.818148
  H 4.929981 0.898981 -0.492711
  H 4.618201 -0.903022 -2.945924
 19
 29.958921
  C 0.893369 0.635822 0.042387
  C 2.330094 0.257097 0.240573
  C 3.075224 0.484285 1.532187
  C 2.795550 -0.659074 2.530016
  H 3.541213 -0.634131 3.321026
  C 3.119831 -0.320674 -0.690384
  H 2.694619 -0.980868 -1.452273
  C 4.367831 0.258300 -1.152097
  C 5.057494 -0.198410 -2.196883
  H 5.928233 0.314579 -2.567863
  H 0.496825 1.111603 0.940296
  H 0.271229 -0.231282 -0.191998
  H 0.816624 1.324634 -0.797846
  H 2.920693 1.445770 2.009180
  H 4.039130 0.101017 1.131594
  H 2.835128 -1.622995 2.029321
  H 1.812930 -0.557873 2.990991
  H 4.720849 1.145861 -0.635319
  H 4.744210 -1.066523 -2.751302
 19
 57.542867
  C 0.858220 0.726368 -0.085813
  C 2.240271 0.258450 0.244328
  C 2.967021 0.453713 1.530475
  C 2.935084 -0.699807 2.562921
  H 3.771668 -0.598959 3.248142
  C 3.122774 -0.372555 -0.609623
  H 2.783147 -1.153128 -1.301022
  C 4.298675 0.286404 -1.118625
  C 5.030611 -0.172609 -2.139974
  H 5.821652 0.412326 -2.572961
  H 0.429543 1.273054 0.751302
  H 0.200542 -0.119333 -0.316676
  H 0.878233 1.369718 -0.964652
  H 2.855222 1.413360 2.029097
  H 3.866366 -0.054114 0.979381
  H 2.975579 -1.672031 2.077938
  H 2.015278 -0.665045 3.154238
  H 4.586783 1.208281 -0.623801
  H 4.821811 -1.120801 -2.607498
 19
 78.247600
  C 0.874161 0.772484 -0.115380
  C 2.222092 0.301503 0.298089
  C 2.860062 0.454503 1.549232
  C 2.973603 -0.699695 2.542340
  H 3.839683 -0.572098 3.190106
  C 3.166677 -0.411683 -0.506298
  H 2.812049 -1.210818 -1.164636
  C 4.308105 0.294613 -1.103055
  C 5.002111 -0.158783 -2.139590
  H 5.812967 0.405254 -2.566741
  H 0.394579 1.321787 0.691212
  H 0.252854 -0.088089 -0.370100
  H 0.925346 1.408693 -1.000071
  H 2.677239 1.382242 2.106573
  H 3.862822 -0.242768 0.745222
  H 3.045491 -1.666919 2.048631
  H 2.083696 -0.707103 3.177040
  H 4.563389 1.250108 -0.658991
  H 4.780983 -1.106766 -2.600523
 19
 61.139396
  C 0.940942 0.796013 -0.128436
  C 2.258936 0.315693 0.373462
  C 2.794606 0.457924 1.616850
  C 2.934823 -0.673992 2.601478
  H 3.773771 -0.533505 3.286609
  C 3.251204 -0.489716 -0.415766
  H 2.898494 -1.302616 -1.042623
  C 4.320194 0.306389 -1.119322
  C 4.945946 -0.093512 -2.220593
  H 5.724842 0.496359 -2.675785
  H 0.428975 1.382115 0.635378
  H 0.332670 -0.085003 -0.356699
  H 1.021548 1.395100 -1.040945
  H 2.591664 1.381802 2.176458
  H 3.904379 -0.491600 0.545843
  H 3.034093 -1.642279 2.115356
  H 2.017644 -0.691429 3.193208
  H 4.586736 1.249812 -0.653775
  H 4.730242 -1.038989 -2.685191
 19
 38.809815
  C 1.046247 0.813393 -0.219835
  C 2.291172 0.299544 0.396239
  C 2.667126 0.446751 1.656051
  C 2.960787 -0.650404 2.638348
  H 3.810993 -0.409422 3.280052
  C 3.270327 -0.572968 -0.365107
  H 2.830565 -1.301044 -1.034963
  C 4.323589 0.253216 -1.072277
  C 4.836214 -0.041918 -2.250909
  H 5.591629 0.572430 -2.716020
  H 0.489965 1.432699 0.478705
  H 0.449744 -0.049856 -0.510458
  H 1.230933 1.394460 -1.128830
  H 2.378356 1.333985 2.219658
  H 3.884936 -0.742092 0.546620
  H 3.173153 -1.609563 2.164847
  H 2.087298 -0.748788 3.276474
  H 4.573299 1.191665 -0.588765
  H 4.563129 -0.944810 -2.779793
 19
 20.939951
  C 1.173935 0.843448 -0.298460
  C 2.339906 0.264881 0.432116
  C 2.589617 0.415436 1.726986
  C 2.949612 -0.652174 2.715316
  H 3.710849 -0.328176 3.424976
  C 3.329621 -0.598277 -0.320597
  H 2.923693 -1.394784 -0.937882
  C 4.254731 0.279852 -1.122978
  C 4.710251 -0.014164 -2.316498
  H 5.390329 0.632257 -2.841980
  H 0.574903 1.470535 0.357328
  H 0.563141 0.007971 -0.640512
  H 1.465021 1.423402 -1.175460
  H 2.196439 1.287742 2.254117
  H 3.984789 -0.878965 0.518353
  H 3.282812 -1.577047 2.246430
  H 2.042688 -0.865235 3.279493
  H 4.562899 1.191301 -0.627680
  H 4.415907 -0.916058 -2.831478
 19
 9.549057
  C 1.250525 0.889085 -0.366577
  C 2.330428 0.227463 0.428005
  C 2.476999 0.367738 1.743075
  C 2.985000 -0.633196 2.737811
  H 3.731569 -0.199576 3.404818
  C 3.291329 -0.660662 -0.325281
  H 2.823447 -1.362638 -1.010488
  C 4.263190 0.218041 -1.065256
  C 4.657296 0.020176 -2.308145
  H 5.369681 0.666201 -2.792681
  H 0.643224 1.537711 0.259711
  H 0.616735 0.105769 -0.780739
  H 1.645690 1.470965 -1.200593
  H 2.009070 1.199892 2.264852
  H 3.898914 -1.126479 0.457213
  H 3.409423 -1.523480 2.281263
  H 2.135144 -0.936678 3.348620
  H 4.633385 1.061607 -0.497099
  H 4.291110 -0.807721 -2.893841
 19
 2.524000
  C 1.389126 0.949553 -0.405707
  C 2.339000 0.186142 0.465681
  C 2.303594 0.258401 1.786941
  C 2.985996 -0.619843 2.790681
  H 3.628522 -0.030841 3.446133
  C 3.342528 -0.669949 -0.269064
  H 2.859888 -1.408278 -0.910794
  C 4.245572 0.204240 -1.087884
  C 4.521358 0.014482 -2.366811
  H 5.187138 0.662653 -2.911745
  H 0.746203 1.596536 0.185567
  H 0.765301 0.243680 -0.953977
  H 1.924071 1.553717 -1.137893
  H 1.685028 0.999268 2.281960
  H 3.960407 -1.163323 0.484895
  H 3.581878 -1.410604 2.345224
  H 2.221154 -1.083732 3.413916
  H 4.667389 1.046430 -0.553459
  H 4.108007 -0.814316 -2.918995
 19
 2.820694
  C 1.465575 1.004945 -0.407878
  C 2.362672 0.203885 0.484603
  C 2.247404 0.205635 1.805201
  C 2.926341 -0.691049 2.795878
  H 3.614282 -0.126664 3.427106
  C 3.439842 -0.606855 -0.206107
  H 3.036121 -1.475619 -0.728769
  C 4.209632 0.259913 -1.154059
  C 4.452904 -0.034536 -2.417061
  H 5.022673 0.616190 -3.058965
  H 0.820604 1.660642 0.171835
  H 0.841690 0.322666 -0.986124
  H 2.037742 1.604853 -1.113235
  H 1.558472 0.886705 2.293421
  H 4.119177 -0.926790 0.588735
  H 3.474064 -1.506851 2.333916
  H 2.164066 -1.120612 3.445130
  H 4.587621 1.177967 -0.720521
  H 4.081279 -0.940206 -2.868436
 19
 0.799128
  C 1.510299 0.974226 -0.415319
  C 2.378215 0.153851 0.494646
  C 2.189730 0.151756 1.807778
  C 2.938775 -0.612764 2.852662
  H 3.567436 0.065217 3.432453
  C 3.430262 -0.654761 -0.224092
  H 2.945704 -1.440401 -0.810170
  C 4.259202 0.206121 -1.128690
  C 4.384848 0.026528 -2.429821
  H 4.999552 0.666498 -3.039323
  H 0.761897 1.525308 0.146233
  H 1.003931 0.327156 -1.131546
  H 2.114572 1.679858 -0.983445
  H 1.420008 0.796362 2.217808
  H 4.099270 -1.125168 0.499965
  H 3.568786 -1.392951 2.432624
  H 2.234659 -1.075680 3.541453
  H 4.777068 1.019248 -0.634940
  H 3.877948 -0.776185 -2.943608
