21
 0
 C -3.25611000 1.02880700 -0.21131500
 C -1.85163700 0.56260700 -0.04962700
 C -1.61229900 -0.52540600 0.65830100
 C -0.23966000 -1.06262000 0.87137100
 C 0.72009300 -0.14879600 0.15088200
 C 2.15188700 -0.63050000 0.31950700
 C 3.04453200 0.31465100 -0.41475500
 H -3.91879000 0.20051500 -0.56506300
 H -3.32610400 1.93715100 -0.81685100
 H -3.62271800 1.27296300 0.82692900
 H -1.08212800 1.12967900 -0.51601200
 H -2.42000000 -1.08465600 1.12341500
 H -0.00119100 -1.11244000 1.95996700
 H -0.22315000 -2.08410600 0.46434700
 H 0.45136200 -0.15182000 -0.92244200
 H 0.64011500 0.86970400 0.54254100
 H 2.38126700 -0.53773000 1.41881100
 H 2.27838100 -1.68150400 0.04922500
 H 3.73887000 0.87921500 0.26817800
 H 3.65140100 -0.26562600 -1.16968100
 H 2.49588000 1.08991100 -0.99424600
