 29
 0.000000
  C 0.989855 0.135663 0.389506
  C 2.466415 0.140693 0.401441
  C 3.238311 0.612444 1.574887
  C 2.448170 1.098637 2.785014
  H 3.116232 1.415347 3.572757
  C 3.087818 -0.323119 -0.753229
  C 4.462315 -0.413255 -0.978393
  C 5.126249 -0.867677 -2.111261
  C 4.617325 -1.388534 -3.409816
  C 3.124428 -1.502215 -3.694280
  C 2.893396 -2.063876 -5.094598
  O 6.448736 -0.868210 -2.112902
  H 0.546442 0.504372 1.307181
  H 0.623994 -0.877629 0.219553
  H 0.623609 0.749449 -0.434284
  H 3.895074 1.425795 1.246230
  H 3.895413 -0.201874 1.900399
  H 1.812333 0.302566 3.170108
  H 1.812041 1.939609 2.512218
  H 2.427490 -0.640276 -1.542418
  H 5.097940 -0.086595 -0.165163
  H 5.070206 -2.378178 -3.538982
  H 5.070694 -0.762843 -4.187118
  H 2.652018 -0.520733 -3.638819
  H 2.651483 -2.173000 -2.975993
  H 3.330148 -1.417495 -5.852367
  H 1.827618 -2.143382 -5.293676
  H 3.329630 -3.054986 -5.195497
  H 6.835510 -0.535221 -1.281437
 29
 -0.346380
  C 0.971056 0.302738 0.361570
  C 2.441909 0.201587 0.367750
  C 3.239307 0.533666 1.573385
  C 2.469186 0.928985 2.825987
  H 3.171145 1.115302 3.635331
  C 3.047771 -0.230966 -0.808340
  C 4.423669 -0.328371 -1.011066
  C 5.109036 -0.778365 -2.135423
  C 4.611945 -1.356367 -3.413254
  C 3.124511 -1.533029 -3.684768
  C 2.923937 -2.192552 -5.048076
  O 6.427823 -0.735959 -2.136330
  H 0.570764 0.760245 1.256866
  H 0.538168 -0.695462 0.260413
  H 0.634576 0.860046 -0.513708
  H 3.922529 1.349801 1.315408
  H 3.874538 -0.325691 1.813266
  H 1.797617 0.137180 3.144433
  H 1.895460 1.838768 2.672467
  H 2.384911 -0.489288 -1.615325
  H 5.057261 0.006460 -0.198723
  H 5.104317 -2.331549 -3.508793
  H 5.050173 -0.748788 -4.213424
  H 2.623264 -0.564009 -3.697196
  H 2.673680 -2.171088 -2.923608
  H 3.350073 -1.583972 -5.841396
  H 1.865144 -2.320640 -5.253870
  H 3.394091 -3.172156 -5.079858
  H 6.827545 -0.371085 -1.324844
 29
 -0.384124
  C 0.982139 0.452639 0.327702
  C 2.442401 0.254296 0.337077
  C 3.235772 0.448705 1.575652
  C 2.461098 0.759144 2.849876
  H 3.154778 0.826835 3.684117
  C 3.045691 -0.136715 -0.853447
  C 4.422468 -0.239790 -1.049551
  C 5.111891 -0.687162 -2.172090
  C 4.617670 -1.328593 -3.420444
  C 3.131351 -1.554683 -3.662923
  C 2.931057 -2.308235 -4.975614
  O 6.428155 -0.601704 -2.189817
  H 0.622870 0.990040 1.197416
  H 0.486446 -0.521408 0.306630
  H 0.669587 0.965918 -0.580571
  H 3.950097 1.261421 1.398587
  H 3.837771 -0.449915 1.745287
  H 1.742584 -0.023874 3.076482
  H 1.937747 1.709522 2.781428
  H 2.385278 -0.337284 -1.679342
  H 5.050744 0.109891 -0.238418
  H 5.132594 -2.295429 -3.477151
  H 5.032762 -0.748011 -4.252142
  H 2.609736 -0.600387 -3.735672
  H 2.701806 -2.146678 -2.854690
  H 3.338125 -1.746093 -5.813219
  H 1.872342 -2.470217 -5.161123
  H 3.420382 -3.278863 -4.946243
  H 6.824183 -0.196558 -1.395541
 29
 -0.047677
  C 0.984347 0.615414 0.328140
  C 2.422846 0.303112 0.288285
  C 3.221658 0.326435 1.542451
  C 2.466806 0.574384 2.841581
  H 3.161267 0.510847 3.675748
  C 3.019270 -0.023773 -0.921882
  C 4.399695 -0.139747 -1.095032
  C 5.106589 -0.569237 -2.212556
  C 4.630597 -1.288873 -3.424459
  C 3.151421 -1.586054 -3.628651
  C 2.962252 -2.440395 -4.879820
  O 6.416563 -0.421050 -2.242568
  H 0.705890 1.189061 1.203138
  H 0.413856 -0.317680 0.349031
  H 0.673854 1.137542 -0.576054
  H 3.993852 1.097323 1.445173
  H 3.753975 -0.625938 1.629408
  H 1.690553 -0.169214 2.997216
  H 2.017548 1.563592 2.865670
  H 2.369087 -0.134187 -1.772442
  H 5.009386 0.208030 -0.265465
  H 5.183160 -2.236529 -3.433975
  H 5.012475 -0.738978 -4.292108
  H 2.593632 -0.659578 -3.762208
  H 2.753526 -2.128548 -2.771348
  H 3.338935 -1.927126 -5.761916
  H 1.908103 -2.652300 -5.037550
  H 3.486396 -3.388688 -4.787043
  H 6.795379 0.033826 -1.467467
 29
 2.446353
  C 0.974603 0.765502 0.361087
  C 2.383365 0.379735 0.193835
  C 3.183461 0.172119 1.440516
  C 2.491498 0.394804 2.781179
  H 3.201444 0.191466 3.580285
  C 2.986851 0.167217 -1.032265
  C 4.368018 -0.021486 -1.148262
  C 5.106083 -0.442159 -2.249681
  C 4.656081 -1.257603 -3.409331
  C 3.185565 -1.633024 -3.550326
  C 2.997443 -2.563793 -4.744536
  O 6.405711 -0.233351 -2.283326
  H 0.772421 1.204879 1.327495
  H 0.343940 -0.121334 0.255790
  H 0.661304 1.445782 -0.431449
  H 4.058587 0.829002 1.414666
  H 3.567671 -0.852733 1.429229
  H 1.645672 -0.274698 2.914977
  H 2.154873 1.422570 2.897786
  H 2.371959 0.215111 -1.916465
  H 4.948585 0.245992 -0.259333
  H 5.253942 -2.175893 -3.361055
  H 4.992110 -0.752564 -4.320026
  H 2.579326 -0.743753 -3.712559
  H 2.837911 -2.138907 -2.648414
  H 3.325461 -2.084952 -5.665448
  H 1.949519 -2.828981 -4.856732
  H 3.566153 -3.482808 -4.616481
  H 6.755023 0.291445 -1.538534
 29
 6.765115
  C 0.953337 0.800630 0.397634
  C 2.358713 0.448050 0.137641
  C 3.154789 0.086035 1.363368
  C 2.531381 0.307444 2.739193
  H 3.245532 -0.000270 3.494441
  C 2.967039 0.284145 -1.091630
  C 4.343230 0.043684 -1.180529
  C 5.097480 -0.334972 -2.289070
  C 4.675914 -1.228507 -3.399351
  C 3.210629 -1.630585 -3.513342
  C 3.031740 -2.644636 -4.640523
  O 6.384412 -0.068378 -2.333149
  H 0.752361 1.006827 1.436070
  H 0.310220 -0.020702 0.076741
  H 0.650422 1.655159 -0.210936
  H 4.088734 0.642992 1.370176
  H 3.424134 -0.974343 1.289522
  H 1.633065 -0.285744 2.884922
  H 2.301375 1.357078 2.914440
  H 2.379551 0.412722 -1.986407
  H 4.896730 0.189551 -0.244395
  H 5.289825 -2.130831 -3.286799
  H 5.003213 -0.775163 -4.340340
  H 2.590433 -0.760701 -3.728185
  H 2.872544 -2.074212 -2.579690
  H 3.356053 -2.228530 -5.591666
  H 1.984335 -2.928194 -4.734857
  H 3.608416 -3.544492 -4.449886
  H 6.707770 0.523119 -1.627590
 29
 15.218463
  C 1.011016 1.048725 0.346297
  C 2.380601 0.634246 -0.001674
  C 3.103874 -0.079153 1.122612
  C 2.462374 -0.119934 2.504007
  H 3.133796 -0.649268 3.183684
  C 3.011255 0.671256 -1.226941
  C 4.352198 0.287791 -1.298647
  C 5.132373 -0.172811 -2.350926
  C 4.705590 -1.203569 -3.335602
  C 3.292629 -1.758247 -3.177819
  C 3.004077 -2.796142 -4.262987
  O 6.374742 0.204385 -2.494023
  H 0.815632 1.020948 1.413965
  H 0.289242 0.401725 -0.161136
  H 0.810935 2.064965 -0.020775
  H 4.084822 0.353750 1.311061
  H 3.279989 -1.112983 0.813542
  H 1.517438 -0.663976 2.504647
  H 2.297493 0.881915 2.901041
  H 2.506644 1.080692 -2.084096
  H 4.834995 0.368000 -0.294390
  H 5.433551 -2.013094 -3.261065
  H 4.823635 -0.783013 -4.339314
  H 2.564572 -0.961821 -3.243607
  H 3.190227 -2.234884 -2.197575
  H 3.065549 -2.349095 -5.249472
  H 2.008489 -3.209342 -4.138625
  H 3.712881 -3.611299 -4.219162
  H 6.690087 0.841837 -1.833251
 29
 36.106645
  C 1.054376 1.290118 0.549671
  C 2.277872 0.712584 -0.046070
  C 3.016851 -0.256461 0.865660
  C 2.541173 -0.371533 2.322105
  H 3.186855 -1.072237 2.845081
  C 2.874717 0.956226 -1.252201
  C 4.143643 0.426548 -1.446046
  C 5.030800 -0.025050 -2.419194
  C 4.751508 -1.188082 -3.301282
  C 3.393754 -1.839325 -3.093857
  C 3.189795 -2.989657 -4.067366
  O 6.243115 0.452728 -2.527473
  H 0.863564 0.963217 1.550054
  H 0.195274 1.024109 -0.059755
  H 1.093243 2.381970 0.502078
  H 4.069262 -0.027976 1.057963
  H 2.920522 -1.257861 0.455388
  H 1.529231 -0.767902 2.387021
  H 2.581559 0.582942 2.832583
  H 2.374330 1.519560 -2.024983
  H 4.533494 0.223925 -0.353782
  H 5.559132 -1.919388 -3.142835
  H 4.833779 -0.837664 -4.334282
  H 2.608015 -1.090130 -3.267743
  H 3.290079 -2.192724 -2.065480
  H 3.252590 -2.643889 -5.101025
  H 2.211766 -3.439536 -3.922366
  H 3.940343 -3.763235 -3.921588
  H 6.395150 1.304408 -2.076430
 29
 68.472493
  C 1.078207 1.369128 0.568414
  C 2.282714 0.742788 -0.002862
  C 3.025312 -0.251539 0.814071
  C 2.569304 -0.467068 2.267736
  H 3.181127 -1.218988 2.757653
  C 2.805911 0.993340 -1.260046
  C 4.027014 0.479263 -1.606396
  C 4.966613 0.000751 -2.423215
  C 4.768148 -1.254084 -3.226429
  C 3.351041 -1.811534 -3.178622
  C 3.227023 -3.047229 -4.056348
  O 6.211473 0.469786 -2.512531
  H 0.895016 1.077101 1.593640
  H 0.209931 1.130331 -0.013383
  H 1.168903 2.466651 0.524211
  H 4.134689 -0.013785 1.057924
  H 3.026798 -1.221456 0.312880
  H 1.550380 -0.831835 2.277873
  H 2.610621 0.436842 2.836977
  H 2.276891 1.657912 -1.930222
  H 4.456130 0.291260 -0.035190
  H 5.495877 -1.999091 -2.865035
  H 5.049939 -1.019445 -4.262312
  H 2.645203 -1.040126 -3.535828
  H 3.079912 -2.068233 -2.150713
  H 3.478396 -2.811860 -5.101125
  H 2.211254 -3.431961 -4.037768
  H 3.888241 -3.810554 -3.723005
  H 6.318304 1.339752 -2.099746
 29
 80.807047
  C 1.117103 1.464538 0.571826
  C 2.297551 0.742276 0.037799
  C 3.063516 -0.272629 0.846342
  C 2.584749 -0.448103 2.297230
  H 3.150313 -1.223418 2.812336
  C 2.775843 0.996575 -1.244809
  C 3.941933 0.486335 -1.699639
  C 4.897455 0.006526 -2.456404
  C 4.758722 -1.264003 -3.260383
  C 3.353586 -1.855949 -3.253054
  C 3.286109 -3.114352 -4.112322
  O 6.168681 0.502498 -2.515423
  H 0.878371 1.196114 1.590967
  H 0.237032 1.272195 -0.045123
  H 1.288320 2.541792 0.528479
  H 4.213092 -0.174267 1.225740
  H 3.013737 -1.239657 0.334878
  H 1.545951 -0.766144 2.287727
  H 2.663458 0.475620 2.864954
  H 2.217498 1.670595 -1.881775
  H 4.253936 0.235703 0.299990
  H 5.480979 -1.989329 -2.876175
  H 5.061299 -1.027451 -4.284648
  H 2.644831 -1.117716 -3.634126
  H 3.060930 -2.105674 -2.230798
  H 3.556132 -2.893043 -5.142492
  H 2.281242 -3.527446 -4.107570
  H 3.968988 -3.873155 -3.739216
  H 6.232128 1.383742 -2.118249
 29
 81.658006
  C 1.201740 1.554512 0.588920
  C 2.347981 0.786145 0.047109
  C 3.095460 -0.294264 0.871752
  C 2.519735 -0.474061 2.289332
  H 2.988481 -1.307219 2.805945
  C 2.798972 1.030056 -1.249175
  C 3.917142 0.508907 -1.786594
  C 4.872684 0.013189 -2.518687
  C 4.750177 -1.282319 -3.287442
  C 3.357547 -1.900447 -3.243538
  C 3.301802 -3.184086 -4.062869
  O 6.145109 0.527026 -2.602353
  H 0.937130 1.277753 1.600786
  H 0.322021 1.416903 -0.041788
  H 1.424913 2.623052 0.574633
  H 4.228519 -0.390453 1.297169
  H 3.006769 -1.225663 0.298663
  H 1.460205 -0.702589 2.224969
  H 2.646664 0.419751 2.891807
  H 2.215351 1.713309 -1.855741
  H 4.066295 0.347030 0.542839
  H 5.492082 -1.982201 -2.894326
  H 5.032356 -1.068287 -4.321514
  H 2.631165 -1.186757 -3.635935
  H 3.083759 -2.123804 -2.211829
  H 3.552412 -2.988069 -5.103251
  H 2.304666 -3.616061 -4.030658
  H 4.005921 -3.918339 -3.677700
  H 6.192183 1.419060 -2.229991
 29
 74.514144
  C 1.458232 1.720287 0.728318
  C 2.489681 0.879607 0.079362
  C 3.107734 -0.431376 0.901088
  C 2.412192 -0.618590 2.251151
  H 2.774674 -1.531437 2.712051
  C 2.840051 1.119459 -1.274776
  C 3.862107 0.531132 -1.903210
  C 4.833737 0.046891 -2.622471
  C 4.737897 -1.282171 -3.336898
  C 3.367718 -1.942708 -3.240323
  C 3.339821 -3.258819 -4.011697
  O 6.080114 0.594576 -2.727408
  H 1.236029 1.428616 1.746701
  H 0.532914 1.675525 0.146760
  H 1.769166 2.767783 0.735939
  H 4.175600 -0.592920 1.188441
  H 2.903267 -1.273204 0.230106
  H 1.333649 -0.722539 2.135367
  H 2.613917 0.205199 2.929026
  H 2.212585 1.811996 -1.826370
  H 3.639371 0.623700 0.448856
  H 5.510024 -1.939012 -2.928298
  H 4.994298 -1.103762 -4.382233
  H 2.611136 -1.270327 -3.642874
  H 3.124279 -2.135731 -2.196174
  H 3.559038 -3.092677 -5.064877
  H 2.360673 -3.724037 -3.939519
  H 4.077730 -3.952306 -3.617622
  H 6.110365 1.495097 -2.372910
 29
 50.439071
  C 1.634032 1.802909 0.816214
  C 2.676548 0.956504 0.164984
  C 2.958538 -0.487907 0.806290
  C 2.085049 -0.830056 2.002548
  H 2.278438 -1.861447 2.289388
  C 2.955748 1.156305 -1.263821
  C 3.951920 0.624554 -1.929614
  C 4.868662 0.114455 -2.733608
  C 4.740994 -1.263535 -3.324500
  C 3.422377 -1.966833 -3.020455
  C 3.384892 -3.347002 -3.666147
  O 6.027712 0.711570 -3.049016
  H 1.457381 1.525826 1.846893
  H 0.690134 1.724381 0.276810
  H 1.926864 2.852238 0.783316
  H 3.989234 -0.692962 1.104888
  H 2.749743 -1.204885 0.005476
  H 1.028690 -0.740888 1.766025
  H 2.309842 -0.204104 2.862597
  H 2.297603 1.852568 -1.774647
  H 3.726901 1.031248 0.545154
  H 5.584140 -1.862967 -2.971945
  H 4.865936 -1.150400 -4.404946
  H 2.590215 -1.367846 -3.393997
  H 3.304040 -2.076929 -1.941713
  H 3.475555 -3.268562 -4.747502
  H 2.447388 -3.848763 -3.440709
  H 4.200171 -3.966783 -3.300777
  H 6.078512 1.632790 -2.745019
 29
 29.198021
  C 1.831917 1.865495 0.921568
  C 2.928628 0.970770 0.380849
  C 2.885764 -0.512778 0.831295
  C 1.832218 -0.858680 1.875628
  H 1.862844 -1.928953 2.068315
  C 3.070565 1.072018 -1.129346
  C 3.965645 0.552121 -1.879818
  C 4.843182 0.068363 -2.796781
  C 4.698409 -1.286228 -3.387307
  C 3.469691 -2.072196 -2.941799
  C 3.435551 -3.440817 -3.613899
  O 5.888797 0.747841 -3.207549
  H 1.692524 1.699054 1.983716
  H 0.882011 1.678591 0.426756
  H 2.094600 2.910794 0.778057
  H 3.866702 -0.797797 1.213021
  H 2.694231 -1.143567 -0.040407
  H 0.831822 -0.610702 1.532523
  H 2.016964 -0.347336 2.817749
  H 2.305674 1.699284 -1.580891
  H 3.892426 1.344532 0.748082
  H 5.608570 -1.850701 -3.158055
  H 4.699342 -1.167787 -4.476341
  H 2.563547 -1.522799 -3.199961
  H 3.489603 -2.208390 -1.860156
  H 3.389394 -3.340450 -4.695504
  H 2.562686 -4.001163 -3.290053
  H 4.321082 -4.019637 -3.361686
  H 5.972937 1.650519 -2.847052
 29
 29.310155
  C 1.643157 1.727427 0.788335
  C 2.948558 1.057694 0.426027
  C 3.196690 -0.317495 1.098105
  C 2.017766 -0.876791 1.889350
  H 2.282378 -1.869875 2.258983
  C 3.073528 0.898271 -1.078043
  C 4.053668 0.420308 -1.749254
  C 4.949296 -0.099089 -2.600452
  C 4.670334 -1.385237 -3.312396
  C 3.294641 -2.006464 -3.059442
  C 3.165484 -3.340539 -3.792367
  O 6.136993 0.456376 -2.857834
  H 1.516500 1.744723 1.868743
  H 0.789580 1.213584 0.352647
  H 1.644757 2.759974 0.442254
  H 4.057788 -0.221290 1.761555
  H 3.459997 -1.058738 0.331103
  H 1.129639 -0.980948 1.268407
  H 1.772473 -0.253337 2.752087
  H 2.224276 1.305743 -1.615319
  H 3.761959 1.721866 0.727168
  H 5.462232 -2.090971 -3.029096
  H 4.811457 -1.206403 -4.381895
  H 2.512633 -1.330775 -3.408492
  H 3.148027 -2.171162 -1.992285
  H 3.284016 -3.207496 -4.864752
  H 2.186945 -3.778537 -3.613548
  H 3.918377 -4.047385 -3.449894
  H 6.327011 1.286601 -2.387041
