17

C 1.00757 -0.072204 0.045803
C 2.503924 -0.082859 0.027403
C 3.219587 -0.595678 -0.979407
C 4.657572 -0.606017 -1.000559
C 5.377539 -1.121441 -2.012463
C 6.816205 -1.130686 -2.031556
C 7.534059 -1.642585 -3.036555
H 8.603623732076525 -1.6561610549374006 -3.0638858366210955
H 0.645633 0.394184 0.96149
H 0.610749 -1.086616 0.006887
H 0.612374 0.495687 -0.797157
H 3.002854 0.353663 0.882679
H 2.708209 -1.029446 -1.830224
H 5.16238 -0.170834 -0.146909
H 4.87323 -1.55671 -2.866287
H 7.323238 -0.695925 -1.178737
H 7.035098 -2.079161 -3.892923
