 17
 0.000000
  C 1.008540 -0.071868 0.046478
  C 2.504922 -0.083223 0.026971
  C 3.220356 -0.595510 -0.978775
  C 4.657110 -0.606612 -1.001621
  C 5.377696 -1.121998 -2.013419
  C 6.815215 -1.131823 -2.033887
  C 7.530198 -1.641667 -3.034820
  H 8.603104 -1.653641 -3.059179
  H 0.646181 0.393904 0.961301
  H 0.611693 -1.085542 0.005813
  H 0.613392 0.494923 -0.796665
  H 3.004465 0.353007 0.881180
  H 2.709408 -1.029127 -1.829067
  H 5.161999 -0.171621 -0.148551
  H 4.873566 -1.557066 -2.866647
  H 7.321594 -0.697046 -1.181241
  H 7.034407 -2.077877 -3.890271
 17
 3.579831
  C 1.011909 -0.086737 0.079428
  C 2.482117 -0.090833 0.032641
  C 3.202514 -0.604812 -0.971374
  C 4.638723 -0.606421 -1.007984
  C 5.363951 -1.122975 -2.013776
  C 6.800593 -1.125681 -2.043118
  C 7.520329 -1.637321 -3.038913
  H 8.596240 -1.626117 -3.036536
  H 0.613697 0.405074 0.959431
  H 0.573400 -1.077716 -0.011648
  H 0.839476 0.490095 -0.805163
  H 3.003109 0.345439 0.876400
  H 2.695333 -1.047912 -1.820616
  H 5.144283 -0.160586 -0.159928
  H 4.861232 -1.569732 -2.862107
  H 7.298360 -0.678136 -1.191833
  H 7.048924 -2.088244 -3.897058
 17
 11.451178
  C 1.002110 -0.099512 0.089855
  C 2.491746 -0.108730 0.039968
  C 3.207067 -0.626244 -0.964297
  C 4.632996 -0.608624 -1.014744
  C 5.343120 -1.121712 -2.000687
  C 6.777012 -1.107635 -2.040279
  C 7.497073 -1.624460 -3.032627
  H 8.567017 -1.596911 -3.032002
  H 0.582479 0.413889 0.933103
  H 0.537804 -1.053136 -0.067514
  H 1.055266 0.487348 -0.794211
  H 3.034055 0.319843 0.875505
  H 2.699086 -1.082834 -1.807691
  H 5.141085 -0.145574 -0.178500
  H 4.838121 -1.587688 -2.838038
  H 7.274394 -0.641075 -1.198401
  H 7.027420 -2.096254 -3.885035
 17
 21.841141
  C 0.984665 -0.105898 0.110690
  C 2.469635 -0.107508 0.037768
  C 3.187443 -0.630104 -0.966135
  C 4.616160 -0.603362 -1.016405
  C 5.344943 -1.130155 -2.013506
  C 6.788855 -1.104527 -2.052015
  C 7.512924 -1.623823 -3.034422
  H 8.579575 -1.587379 -3.033072
  H 0.559290 0.414913 0.954363
  H 0.499264 -1.045514 -0.093133
  H 1.196482 0.495901 -0.757262
  H 3.017409 0.323038 0.872322
  H 2.682392 -1.095977 -1.804489
  H 5.120357 -0.127634 -0.183719
  H 4.843027 -1.610766 -2.849106
  H 7.282368 -0.624760 -1.214219
  H 7.048131 -2.108856 -3.883072
 17
 31.296381
  C 0.967802 -0.107264 0.124823
  C 2.460806 -0.112942 0.032308
  C 3.179443 -0.650589 -0.967130
  C 4.611493 -0.602086 -1.027997
  C 5.346313 -1.142806 -2.015187
  C 6.783936 -1.092049 -2.061375
  C 7.517550 -1.625595 -3.036420
  H 8.591440 -1.569511 -3.040908
  H 0.552430 0.363403 0.995866
  H 0.451341 -0.999851 -0.200866
  H 1.321132 0.559989 -0.662538
  H 3.009250 0.321504 0.856794
  H 2.673834 -1.140768 -1.790374
  H 5.112473 -0.096655 -0.211835
  H 4.851460 -1.652568 -2.831856
  H 7.272438 -0.580267 -1.237065
  H 7.064254 -2.135588 -3.860281
 17
 39.453121
  C 0.961493 -0.112488 0.143172
  C 2.452282 -0.114722 0.015037
  C 3.176150 -0.664115 -0.982317
  C 4.597303 -0.602993 -1.042397
  C 5.341655 -1.150108 -2.021056
  C 6.784175 -1.084432 -2.063276
  C 7.527743 -1.622071 -3.027257
  H 8.604663 -1.553740 -3.028485
  H 0.563071 0.330305 1.033157
  H 0.422051 -0.961891 -0.243002
  H 1.413888 0.588891 -0.597847
  H 3.004452 0.333761 0.833682
  H 2.672839 -1.167836 -1.796529
  H 5.091723 -0.082381 -0.233401
  H 4.852390 -1.677309 -2.833843
  H 7.265052 -0.556191 -1.243989
  H 7.080237 -2.151859 -3.851897
 17
 45.299018
  C 0.953761 -0.119279 0.155456
  C 2.441247 -0.114448 0.000455
  C 3.165993 -0.673946 -0.991158
  C 4.605770 -0.602948 -1.054049
  C 5.354873 -1.155724 -2.024068
  C 6.784950 -1.077064 -2.065843
  C 7.537115 -1.620414 -3.023239
  H 8.603815 -1.542296 -3.021658
  H 0.561651 0.296383 1.068721
  H 0.393326 -0.923812 -0.291453
  H 1.483839 0.613621 -0.539171
  H 2.994085 0.350929 0.823587
  H 2.659336 -1.193595 -1.797925
  H 5.102068 -0.064335 -0.247091
  H 4.871222 -1.697013 -2.829657
  H 7.255382 -0.538083 -1.258636
  H 7.095363 -2.168007 -3.845845
 17
 49.455233
  C 0.957428 -0.129896 0.165226
  C 2.447125 -0.105767 -0.004015
  C 3.178944 -0.683567 -0.994684
  C 4.590208 -0.600549 -1.061764
  C 5.347558 -1.163175 -2.027679
  C 6.780435 -1.071390 -2.070967
  C 7.537881 -1.620236 -3.018656
  H 8.609976 -1.530605 -3.016866
  H 0.564480 0.238932 1.089232
  H 0.386243 -0.872812 -0.357236
  H 1.551805 0.646428 -0.472710
  H 2.991650 0.367800 0.804960
  H 2.674638 -1.218739 -1.785568
  H 5.079078 -0.049188 -0.269557
  H 4.869086 -1.719936 -2.823030
  H 7.248393 -0.513267 -1.267417
  H 7.105636 -2.180332 -3.826919
 17
 53.024453
  C 0.969816 -0.136625 0.169937
  C 2.442172 -0.095336 -0.007212
  C 3.178499 -0.682650 -0.996074
  C 4.592022 -0.597398 -1.062157
  C 5.352922 -1.164414 -2.025217
  C 6.775432 -1.063655 -2.070396
  C 7.539062 -1.616694 -3.015605
  H 8.597821 -1.525971 -3.010082
  H 0.576101 0.212792 1.083409
  H 0.388837 -0.863471 -0.398638
  H 1.604010 0.652712 -0.440225
  H 2.989515 0.385276 0.811292
  H 2.673981 -1.224929 -1.781515
  H 5.083739 -0.033074 -0.267818
  H 4.876067 -1.730016 -2.818639
  H 7.234068 -0.504645 -1.279601
  H 7.110095 -2.189370 -3.822276
 17
 55.707273
  C 0.958579 -0.153654 0.175654
  C 2.443480 -0.086434 -0.009064
  C 3.180800 -0.682827 -0.997414
  C 4.590362 -0.589805 -1.071312
  C 5.351331 -1.163185 -2.029811
  C 6.785141 -1.069356 -2.072088
  C 7.548635 -1.625927 -3.014154
  H 8.617402 -1.519964 -3.020339
  H 0.543293 0.192042 1.106940
  H 0.396589 -0.833047 -0.411730
  H 1.639015 0.662800 -0.426284
  H 2.993873 0.394189 0.809588
  H 2.674102 -1.232531 -1.775385
  H 5.081362 -0.023854 -0.284841
  H 4.875392 -1.732371 -2.814004
  H 7.248778 -0.497989 -1.280662
  H 7.124119 -2.188406 -3.809931
 17
 58.307287
  C 0.958203 -0.165308 0.183838
  C 2.444016 -0.071523 -0.006628
  C 3.183113 -0.676734 -0.994263
  C 4.599801 -0.587398 -1.067998
  C 5.360953 -1.163681 -2.025953
  C 6.787305 -1.060857 -2.074438
  C 7.552036 -1.621056 -3.015492
  H 8.619824 -1.520425 -3.017241
  H 0.532198 0.178023 1.107389
  H 0.395327 -0.828440 -0.437556
  H 1.675812 0.675361 -0.415487
  H 2.994305 0.397784 0.812611
  H 2.672119 -1.231081 -1.769265
  H 5.093093 -0.016263 -0.286375
  H 4.883894 -1.737726 -2.807936
  H 7.250624 -0.485741 -1.285568
  H 7.124226 -2.199634 -3.813882
 17
 60.650454
  C 0.972146 -0.184605 0.193460
  C 2.449494 -0.056933 -0.005766
  C 3.192413 -0.671193 -0.995626
  C 4.596476 -0.582390 -1.068054
  C 5.360380 -1.158546 -2.028482
  C 6.782350 -1.049131 -2.077988
  C 7.547824 -1.613857 -3.016314
  H 8.620286 -1.531410 -3.002858
  H 0.534931 0.164959 1.107334
  H 0.413803 -0.828577 -0.451281
  H 1.715295 0.684348 -0.413808
  H 3.002139 0.404700 0.814521
  H 2.670300 -1.234319 -1.783346
  H 5.089905 -0.009608 -0.287828
  H 4.881967 -1.736550 -2.813377
  H 7.250020 -0.472146 -1.275717
  H 7.123151 -2.207779 -3.803643
 17
 62.435127
  C 0.965039 -0.208119 0.208562
  C 2.448825 -0.041145 -0.004467
  C 3.196302 -0.664370 -0.994443
  C 4.602909 -0.572110 -1.072943
  C 5.366619 -1.154673 -2.030198
  C 6.795144 -1.062941 -2.071423
  C 7.561160 -1.627288 -3.009333
  H 8.630867 -1.522516 -3.011190
  H 0.515735 0.156099 1.104197
  H 0.406412 -0.837970 -0.453627
  H 1.738586 0.699596 -0.420502
  H 2.997426 0.414364 0.814201
  H 2.685939 -1.212546 -1.756968
  H 5.096439 -0.004780 -0.297078
  H 4.889916 -1.727846 -2.807592
  H 7.255776 -0.490032 -1.287788
  H 7.133588 -2.203475 -3.812667
 17
 64.072243
  C 0.984133 -0.236344 0.221625
  C 2.452289 -0.024387 -0.003136
  C 3.203705 -0.652274 -0.998109
  C 4.598976 -0.553105 -1.080197
  C 5.363684 -1.139285 -2.036436
  C 6.794991 -1.060571 -2.069266
  C 7.564284 -1.632131 -3.002146
  H 8.636889 -1.526287 -3.003140
  H 0.519779 0.140686 1.106837
  H 0.426081 -0.846006 -0.459702
  H 1.777461 0.717931 -0.425333
  H 2.999848 0.419850 0.818458
  H 2.673405 -1.219583 -1.781594
  H 5.097524 0.013551 -0.298055
  H 4.884287 -1.715998 -2.814499
  H 7.253154 -0.494005 -1.290445
  H 7.139728 -2.212895 -3.797343
