 25
 0.000000
  C 0.931126 0.046365 0.295451
  C 2.417489 0.064042 0.057721
  C 3.237140 -0.008923 1.326209
  H 2.586231 -0.053819 2.195755
  C 3.003545 0.130644 -1.153117
  C 2.353704 0.206707 -2.520209
  C 0.839551 0.218824 -2.710192
  C 0.507992 0.301221 -4.198307
  C 4.465690 0.135048 -1.238431
  C 5.213870 0.195604 -2.340907
  H 6.290332 0.191482 -2.273289
  H 0.717235 -0.009089 1.360281
  H 0.468581 -0.816109 -0.177875
  H 0.455611 0.946079 -0.086321
  H 3.881488 0.863317 1.433053
  H 3.873722 -0.893305 1.336305
  H 2.743131 -0.642030 -3.093210
  H 2.744717 1.112631 -2.996438
  H 0.395653 1.078848 -2.210404
  H 0.393463 -0.689782 -2.307864
  H 0.921362 1.208294 -4.634750
  H -0.569402 0.310771 -4.348408
  H 0.919266 -0.553381 -4.731807
  H 4.994424 0.082976 -0.299344
  H 4.821066 0.250831 -3.341254
 25
 5.819573
  C 0.940717 0.061351 0.308487
  C 2.387796 0.066721 0.069598
  C 3.233357 0.011975 1.346468
  H 2.587564 -0.065361 2.217894
  C 2.989679 0.130320 -1.148515
  C 2.340656 0.204598 -2.513410
  C 0.827231 0.238080 -2.709146
  C 0.503451 0.315690 -4.199125
  C 4.455759 0.116168 -1.238458
  C 5.203182 0.169671 -2.342210
  H 6.278737 0.160420 -2.273120
  H 0.676068 -0.035257 1.350010
  H 0.758846 -0.852231 -0.229682
  H 0.404536 0.895157 -0.116866
  H 3.834848 0.913439 1.453564
  H 3.897923 -0.850205 1.344553
  H 2.720258 -0.653316 -3.080082
  H 2.743448 1.102801 -2.994343
  H 0.395844 1.110289 -2.217191
  H 0.360828 -0.660077 -2.303463
  H 0.935090 1.212156 -4.639988
  H -0.572890 0.342565 -4.354091
  H 0.903184 -0.549346 -4.724809
  H 4.985463 0.063089 -0.302473
  H 4.807371 0.226776 -3.341016
 25
 17.843603
  C 0.933672 0.053794 0.273273
  C 2.374778 0.070946 0.051111
  C 3.225076 0.027229 1.372561
  H 2.564434 -0.077855 2.226863
  C 2.992843 0.131112 -1.160213
  C 2.344308 0.197777 -2.511832
  C 0.829103 0.265238 -2.688308
  C 0.487485 0.324673 -4.174991
  C 4.450310 0.110280 -1.245314
  C 5.201095 0.152856 -2.343942
  H 6.278223 0.139411 -2.268912
  H 0.632389 -0.086563 1.302555
  H 1.005486 -0.859556 -0.292487
  H 0.349636 0.840151 -0.202708
  H 3.791752 0.954848 1.492921
  H 3.921715 -0.816947 1.376677
  H 2.702448 -0.676281 -3.070847
  H 2.761854 1.081479 -3.008180
  H 0.426653 1.163871 -2.205328
  H 0.339938 -0.612799 -2.257673
  H 0.937593 1.200369 -4.637959
  H -0.590316 0.378485 -4.316249
  H 0.856200 -0.560668 -4.689520
  H 4.977760 0.063197 -0.304204
  H 4.810548 0.204725 -3.343834
 25
 31.818423
  C 0.922110 0.061492 0.317638
  C 2.362125 0.069014 0.057755
  C 3.232761 0.019305 1.354011
  H 2.583112 -0.105719 2.228679
  C 2.974498 0.131489 -1.144284
  C 2.327347 0.198006 -2.513929
  C 0.816863 0.278789 -2.707456
  C 0.491467 0.327241 -4.200591
  C 4.439152 0.107697 -1.224215
  C 5.193124 0.145393 -2.325623
  H 6.262532 0.130653 -2.251928
  H 0.634120 -0.090593 1.345663
  H 1.179797 -0.824535 -0.235094
  H 0.300178 0.797562 -0.179189
  H 3.782890 0.955187 1.464729
  H 3.942723 -0.804942 1.340927
  H 2.684388 -0.687683 -3.066548
  H 2.758153 1.078693 -3.014826
  H 0.423196 1.181035 -2.242535
  H 0.316650 -0.583993 -2.276289
  H 0.956519 1.193374 -4.667057
  H -0.584203 0.391626 -4.354744
  H 0.855600 -0.566088 -4.701151
  H 4.962983 0.063757 -0.290436
  H 4.800655 0.193664 -3.328273
 25
 44.510527
  C 0.918578 0.086722 0.318214
  C 2.353701 0.059568 0.040184
  C 3.210259 0.007175 1.342148
  H 2.564940 -0.115723 2.217613
  C 2.987727 0.122756 -1.157333
  C 2.339377 0.195536 -2.532497
  C 0.820317 0.276253 -2.704649
  C 0.467611 0.329780 -4.192548
  C 4.442654 0.099328 -1.219603
  C 5.209707 0.139527 -2.311132
  H 6.280859 0.138843 -2.221584
  H 0.634839 -0.054314 1.348912
  H 1.306511 -0.797018 -0.200031
  H 0.281798 0.772114 -0.206737
  H 3.754942 0.941329 1.451270
  H 3.920167 -0.812286 1.338393
  H 2.692267 -0.692274 -3.094034
  H 2.766621 1.080226 -3.038688
  H 0.433866 1.177660 -2.229286
  H 0.329393 -0.589240 -2.267128
  H 0.923744 1.197800 -4.663744
  H -0.611164 0.393411 -4.327853
  H 0.823862 -0.561325 -4.703379
  H 4.965543 0.062442 -0.276041
  H 4.829910 0.191333 -3.320240
 25
 53.118747
  C 0.904040 0.104593 0.340443
  C 2.347968 0.054917 0.038859
  C 3.198160 -0.002136 1.328753
  H 2.557698 -0.131637 2.204122
  C 2.989046 0.123478 -1.165244
  C 2.349369 0.198477 -2.534910
  C 0.823620 0.281557 -2.708082
  C 0.467078 0.330017 -4.198047
  C 4.441434 0.096347 -1.220651
  C 5.209407 0.134396 -2.313145
  H 6.285809 0.136963 -2.221970
  H 0.625944 -0.030832 1.382737
  H 1.411721 -0.780568 -0.147910
  H 0.243184 0.735722 -0.209651
  H 3.738498 0.937788 1.442618
  H 3.915605 -0.820556 1.316892
  H 2.698174 -0.685440 -3.092240
  H 2.779165 1.077256 -3.040617
  H 0.437108 1.190297 -2.233681
  H 0.331681 -0.584671 -2.264513
  H 0.923915 1.196172 -4.673199
  H -0.613593 0.394644 -4.332205
  H 0.821838 -0.563994 -4.706641
  H 4.965383 0.063291 -0.269123
  H 4.829106 0.186341 -3.320866
 25
 58.999320
  C 0.893040 0.133163 0.338970
  C 2.344312 0.045891 0.035382
  C 3.193012 -0.019349 1.336800
  H 2.551888 -0.146506 2.195683
  C 2.991185 0.117532 -1.173092
  C 2.344429 0.197486 -2.544328
  C 0.826429 0.281293 -2.706368
  C 0.464021 0.328646 -4.181128
  C 4.453503 0.092251 -1.225572
  C 5.225628 0.133684 -2.314177
  H 6.294663 0.154567 -2.218135
  H 0.615460 0.022568 1.356574
  H 1.485888 -0.772983 -0.106327
  H 0.220034 0.715144 -0.257801
  H 3.732445 0.914222 1.454065
  H 3.905003 -0.839261 1.322214
  H 2.685315 -0.679138 -3.102828
  H 2.769691 1.070713 -3.048370
  H 0.446501 1.185388 -2.233614
  H 0.336246 -0.586194 -2.257988
  H 0.918393 1.193119 -4.657902
  H -0.610926 0.393700 -4.306945
  H 0.815244 -0.566427 -4.690288
  H 4.970218 0.070577 -0.281191
  H 4.850108 0.193457 -3.316211
 25
 63.990034
  C 0.892445 0.165197 0.357918
  C 2.344672 0.044036 0.041001
  C 3.195193 -0.038062 1.341471
  H 2.546474 -0.174197 2.208491
  C 2.993585 0.126399 -1.172680
  C 2.345827 0.206365 -2.548966
  C 0.823596 0.279919 -2.715154
  C 0.460692 0.323073 -4.200361
  C 4.448889 0.106312 -1.221580
  C 5.223514 0.140170 -2.310865
  H 6.296152 0.145370 -2.215087
  H 0.616223 0.060934 1.394030
  H 1.551604 -0.765045 -0.064193
  H 0.209754 0.701812 -0.266575
  H 3.743000 0.900492 1.470410
  H 3.909598 -0.867567 1.314342
  H 2.694922 -0.670875 -3.112389
  H 2.767698 1.086887 -3.053554
  H 0.435508 1.187318 -2.242047
  H 0.338892 -0.593146 -2.264662
  H 0.910366 1.191089 -4.678782
  H -0.618283 0.381074 -4.329241
  H 0.818741 -0.570650 -4.709058
  H 4.968260 0.079491 -0.269876
  H 4.847017 0.180197 -3.317716
 25
 67.591181
  C 0.890619 0.199375 0.351188
  C 2.340841 0.039822 0.038686
  C 3.196422 -0.055153 1.343090
  H 2.553718 -0.196687 2.200696
  C 2.997735 0.135289 -1.179158
  C 2.347684 0.216752 -2.552285
  C 0.829073 0.276702 -2.709494
  C 0.456617 0.316375 -4.192500
  C 4.447372 0.120043 -1.221136
  C 5.228953 0.147036 -2.306905
  H 6.302062 0.133034 -2.205574
  H 0.604660 0.106411 1.378058
  H 1.599778 -0.763068 -0.040826
  H 0.208430 0.683313 -0.303817
  H 3.741825 0.870189 1.479699
  H 3.900095 -0.878920 1.304726
  H 2.700961 -0.654835 -3.120605
  H 2.758923 1.099522 -3.053370
  H 0.436242 1.179506 -2.234373
  H 0.357239 -0.599295 -2.256215
  H 0.894292 1.186455 -4.672766
  H -0.622282 0.364471 -4.314934
  H 0.818768 -0.571710 -4.702900
  H 4.963028 0.087482 -0.264373
  H 4.860116 0.164993 -3.312035
 25
 70.539277
  C 0.894497 0.249008 0.373200
  C 2.340436 0.033269 0.050070
  C 3.202253 -0.083781 1.346633
  H 2.551204 -0.227247 2.212216
  C 2.997223 0.137857 -1.175681
  C 2.347344 0.219983 -2.551986
  C 0.832097 0.273153 -2.716379
  C 0.467680 0.302894 -4.200773
  C 4.435574 0.117407 -1.219639
  C 5.218214 0.152228 -2.310460
  H 6.287891 0.158688 -2.209916
  H 0.603886 0.163739 1.400900
  H 1.634852 -0.760862 -0.003841
  H 0.197173 0.689629 -0.312553
  H 3.768452 0.843448 1.492011
  H 3.900218 -0.929182 1.290319
  H 2.705379 -0.650327 -3.119758
  H 2.757649 1.103102 -3.050543
  H 0.434652 1.172895 -2.251990
  H 0.361523 -0.602028 -2.261066
  H 0.906280 1.174943 -4.684254
  H -0.611380 0.346231 -4.328799
  H 0.837631 -0.590290 -4.705305
  H 4.947574 0.090118 -0.272090
  H 4.847079 0.186967 -3.317607
 25
 72.745774
  C 0.897065 0.292346 0.378897
  C 2.336564 0.027627 0.050550
  C 3.204878 -0.104294 1.355912
  H 2.552393 -0.250667 2.212815
  C 2.996482 0.147217 -1.179424
  C 2.353007 0.228776 -2.543982
  C 0.837741 0.267096 -2.714078
  C 0.477623 0.290125 -4.201420
  C 4.432406 0.127097 -1.226677
  C 5.211075 0.159639 -2.322966
  H 6.283581 0.152900 -2.228731
  H 0.595271 0.199997 1.403622
  H 1.661009 -0.767246 0.006587
  H 0.199073 0.690644 -0.318667
  H 3.768957 0.805395 1.507129
  H 3.885051 -0.943170 1.288909
  H 2.721224 -0.636246 -3.114283
  H 2.758164 1.119572 -3.038421
  H 0.428255 1.168115 -2.250862
  H 0.376050 -0.610452 -2.259474
  H 0.908565 1.163955 -4.684671
  H -0.604164 0.322683 -4.333867
  H 0.856593 -0.597097 -4.701797
  H 4.951946 0.092503 -0.274939
  H 4.835718 0.183252 -3.323659
 25
 74.706554
  C 0.903844 0.346366 0.388841
  C 2.335861 0.017008 0.055504
  C 3.209327 -0.130100 1.364676
  H 2.554965 -0.273383 2.218825
  C 2.999445 0.144405 -1.178872
  C 2.355122 0.228257 -2.546588
  C 0.837285 0.261694 -2.719148
  C 0.479373 0.276845 -4.203272
  C 4.428178 0.116402 -1.224601
  C 5.209186 0.161621 -2.323083
  H 6.280971 0.183300 -2.227927
  H 0.592113 0.238985 1.406463
  H 1.684453 -0.775660 0.017007
  H 0.198710 0.712549 -0.326077
  H 3.789819 0.780674 1.521717
  H 3.884082 -0.986313 1.289141
  H 2.727194 -0.637458 -3.120616
  H 2.758053 1.118980 -3.038161
  H 0.427821 1.154969 -2.265423
  H 0.379855 -0.611051 -2.263272
  H 0.909010 1.151169 -4.690287
  H -0.600148 0.305846 -4.336333
  H 0.862913 -0.615427 -4.701084
  H 4.946055 0.085971 -0.276861
  H 4.834514 0.210445 -3.318886
 25
 74.867797
  C 0.933702 0.454535 0.390753
  C 2.329738 0.005740 0.050257
  C 3.211864 -0.178376 1.364112
  H 2.556072 -0.316717 2.213886
  C 3.006874 0.154033 -1.185005
  C 2.358034 0.241319 -2.553447
  C 0.838640 0.247064 -2.717779
  C 0.471153 0.242801 -4.201811
  C 4.431001 0.118334 -1.219199
  C 5.223292 0.178261 -2.308274
  H 6.293590 0.201120 -2.200589
  H 0.587795 0.297332 1.398754
  H 1.688369 -0.786066 0.004434
  H 0.225195 0.777654 -0.333935
  H 3.814539 0.712228 1.531162
  H 3.857572 -1.048251 1.269953
  H 2.739673 -0.609511 -3.132572
  H 2.745506 1.144112 -3.042197
  H 0.413216 1.142489 -2.266494
  H 0.397358 -0.635607 -2.247526
  H 0.882753 1.120062 -4.699266
  H -0.610005 0.252377 -4.328598
  H 0.866597 -0.646992 -4.694746
  H 4.939700 0.078609 -0.266208
  H 4.855925 0.250457 -3.314986
 25
 74.074794
  C 0.972439 0.582287 0.414107
  C 2.319450 0.006796 0.050922
  C 3.199275 -0.247753 1.353033
  H 2.538069 -0.399136 2.202449
  C 3.006994 0.190353 -1.186856
  C 2.356514 0.273781 -2.550250
  C 0.847031 0.224224 -2.712135
  C 0.480609 0.186508 -4.195398
  C 4.430180 0.153605 -1.217522
  C 5.225949 0.210062 -2.307809
  H 6.293490 0.185097 -2.201251
  H 0.589081 0.346537 1.393692
  H 1.683500 -0.778998 -0.031766
  H 0.268140 0.910311 -0.317465
  H 3.825587 0.613324 1.552865
  H 3.816913 -1.128186 1.222595
  H 2.765021 -0.555276 -3.137637
  H 2.711620 1.194785 -3.030749
  H 0.386527 1.113949 -2.271119
  H 0.435609 -0.671114 -2.225826
  H 0.861154 1.069258 -4.704394
  H -0.599203 0.157202 -4.321497
  H 0.904704 -0.692974 -4.674723
  H 4.934983 0.074534 -0.269169
  H 4.858862 0.259963 -3.316577
