 14
 0.000000
  C 0.992129 0.125941 0.361475
  C 2.449396 0.148562 0.318682
  H 2.998508 0.485811 1.187818
  C 3.135181 -0.274519 -0.796922
  C 4.528729 -0.332817 -0.893746
  C 5.160586 -0.834651 -2.019428
  H 4.578496 -1.195108 -2.864561
  O 6.434203 -0.937314 -2.193993
  H 0.590914 0.440071 1.318414
  H 0.632445 -0.878936 0.111768
  H 0.583246 0.756431 -0.432108
  H 2.554505 -0.614367 -1.646847
  H 5.122819 0.022385 -0.061379
  H 6.986866 -0.620668 -1.450788
 14
 -0.224978
  C 0.991591 0.137514 0.373426
  C 2.446650 0.120839 0.301238
  H 3.011311 0.392941 1.183127
  C 3.125567 -0.263484 -0.833229
  C 4.519444 -0.350034 -0.899974
  C 5.168275 -0.792271 -2.039255
  H 4.600324 -1.078004 -2.919447
  O 6.442847 -0.918455 -2.189288
  H 0.621757 0.631532 1.266272
  H 0.627847 -0.896846 0.376990
  H 0.554212 0.574826 -0.524940
  H 2.554158 -0.533370 -1.713395
  H 5.099124 -0.065012 -0.030844
  H 6.985542 -0.669781 -1.411047
 14
 0.097030
  C 0.990119 0.165485 0.372850
  C 2.438215 0.109615 0.294134
  H 3.004463 0.335072 1.185140
  C 3.118602 -0.252635 -0.854279
  C 4.509161 -0.401145 -0.897352
  C 5.168557 -0.755575 -2.062093
  H 4.612667 -0.926981 -2.980356
  O 6.445893 -0.886454 -2.205268
  H 0.621434 0.808694 1.162704
  H 0.733015 -0.872867 0.656818
  H 0.510550 0.336014 -0.583440
  H 2.554358 -0.428632 -1.759281
  H 5.077520 -0.221914 0.002421
  H 6.976454 -0.724410 -1.399005
 14
 7.468467
  C 0.986613 0.217378 0.388611
  C 2.425056 0.118777 0.257296
  H 3.025339 0.366538 1.122337
  C 3.093195 -0.208174 -0.902137
  C 4.486321 -0.345339 -0.930651
  C 5.165304 -0.704841 -2.079078
  H 4.636121 -0.827608 -3.018392
  O 6.427600 -0.980397 -2.166356
  H 0.579335 0.748579 1.234051
  H 1.049925 -0.866653 0.706967
  H 0.412600 0.248345 -0.532351
  H 2.542782 -0.405363 -1.814289
  H 5.037999 -0.174551 -0.025603
  H 6.921851 -0.911783 -1.323028
 14
 21.799250
  C 0.975685 0.330472 0.365706
  C 2.374703 0.057560 0.267276
  H 2.996222 0.320210 1.119232
  C 3.062632 -0.253337 -0.906507
  C 4.446829 -0.455864 -0.914969
  C 5.136564 -0.745999 -2.068380
  H 4.612820 -0.928309 -3.000302
  O 6.431654 -0.872647 -2.178082
  H 0.554087 0.782599 1.249055
  H 1.314019 -0.822908 0.670223
  H 0.371573 0.298186 -0.524160
  H 2.517861 -0.383743 -1.832094
  H 4.999089 -0.317424 0.006183
  H 6.914757 -0.747969 -1.337973
 14
 31.134498
  C 0.969363 0.396141 0.346004
  C 2.350288 0.031626 0.307130
  H 2.968320 0.316143 1.155160
  C 3.060381 -0.262744 -0.893348
  C 4.437840 -0.428792 -0.921656
  C 5.116034 -0.753162 -2.072632
  H 4.591359 -0.907508 -3.006655
  O 6.413134 -0.910150 -2.185906
  H 0.519225 0.790833 1.239004
  H 1.646182 -0.880109 0.634227
  H 0.360856 0.318080 -0.540142
  H 2.502874 -0.398404 -1.808219
  H 4.999961 -0.277181 -0.009603
  H 6.898430 -0.774857 -1.350265
 14
 31.425382
  C 0.966582 0.456022 0.333165
  C 2.323589 -0.013706 0.353683
  H 2.931386 0.304129 1.198862
  C 3.055794 -0.284732 -0.871700
  C 4.423594 -0.444977 -0.913344
  C 5.091135 -0.740319 -2.085137
  H 4.551595 -0.871908 -3.015417
  O 6.379992 -0.879169 -2.220147
  H 0.505405 0.850165 1.219028
  H 1.927046 -1.037571 0.599509
  H 0.373317 0.376938 -0.561054
  H 2.486072 -0.394167 -1.783432
  H 4.995969 -0.317513 -0.003919
  H 6.882724 -0.763266 -1.389994
 14
 33.014388
  C 0.944650 0.457058 0.364585
  C 2.300721 0.029327 0.379009
  H 2.898486 0.313179 1.240657
  C 3.033206 -0.269815 -0.852434
  C 4.402988 -0.439347 -0.897537
  C 5.057516 -0.757111 -2.068067
  H 4.508811 -0.904744 -2.990833
  O 6.343682 -0.893258 -2.216630
  H 0.495827 0.902907 1.231614
  H 2.146039 -1.095283 0.401996
  H 0.338658 0.338872 -0.516112
  H 2.464009 -0.355401 -1.767311
  H 4.980714 -0.297056 0.006106
  H 6.857368 -0.760540 -1.395849
 14
 35.623395
  C 0.946253 0.450720 0.398165
  C 2.289359 0.085436 0.387396
  H 2.888539 0.343663 1.254150
  C 3.010933 -0.285727 -0.837047
  C 4.397599 -0.444398 -0.891716
  C 5.040984 -0.772410 -2.057299
  H 4.487817 -0.939582 -2.973555
  O 6.330854 -0.908140 -2.215499
  H 0.502431 0.905164 1.263598
  H 2.351712 -1.087935 0.180034
  H 0.316769 0.299614 -0.461381
  H 2.442228 -0.360412 -1.753799
  H 4.978177 -0.284745 0.006768
  H 6.848158 -0.760590 -1.400437
 14
 30.803053
  C 0.977255 0.491185 0.415097
  C 2.283914 0.145781 0.397982
  H 2.903036 0.377097 1.255114
  C 2.973902 -0.365394 -0.807615
  C 4.390331 -0.492278 -0.878117
  C 5.034475 -0.758111 -2.054389
  H 4.482225 -0.900322 -2.975830
  O 6.326216 -0.865849 -2.220223
  H 0.536853 0.952273 1.280320
  H 2.518028 -1.197659 -0.060504
  H 0.329522 0.321972 -0.428305
  H 2.404564 -0.397709 -1.729043
  H 4.966556 -0.353175 0.026684
  H 6.845141 -0.741373 -1.402434
 14
 20.400985
  C 1.018391 0.538538 0.416125
  C 2.309341 0.201382 0.413248
  H 2.947120 0.427898 1.254764
  C 2.934080 -0.480279 -0.756379
  C 4.374043 -0.545369 -0.850251
  C 5.019055 -0.734792 -2.044336
  H 4.462279 -0.854615 -2.967383
  O 6.306343 -0.789948 -2.221019
  H 0.571761 1.058392 1.245457
  H 2.583291 -1.428670 -0.265081
  H 0.369018 0.319796 -0.415315
  H 2.386307 -0.409111 -1.692694
  H 4.948916 -0.426374 0.058746
  H 6.836022 -0.683956 -1.405381
 14
 16.898180
  C 1.016185 0.490024 0.480172
  C 2.328200 0.256297 0.399969
  H 2.991008 0.551233 1.199974
  C 2.914421 -0.459830 -0.760636
  C 4.365185 -0.528256 -0.842755
  C 5.020507 -0.770011 -2.023433
  H 4.471961 -0.918993 -2.947735
  O 6.306862 -0.842959 -2.183501
  H 0.580660 1.018541 1.309719
  H 2.532160 -1.481122 -0.551302
  H 0.334693 0.180517 -0.295253
  H 2.437045 -0.209854 -1.712265
  H 4.933592 -0.380083 0.066265
  H 6.833488 -0.712610 -1.368716
 14
 16.245925
  C 1.004329 0.414173 0.550409
  C 2.324816 0.278443 0.388616
  H 3.001955 0.656463 1.139680
  C 2.908899 -0.384968 -0.797805
  C 4.363310 -0.470673 -0.856571
  C 5.027575 -0.846823 -1.996667
  H 4.489131 -1.086731 -2.906916
  O 6.314315 -0.957101 -2.130297
  H 0.584014 0.915433 1.404200
  H 2.488114 -1.408275 -0.833615
  H 0.301990 0.035203 -0.171450
  H 2.496247 0.031234 -1.728306
  H 4.927004 -0.231342 0.035975
  H 6.834270 -0.752145 -1.326753
