29

C 0.9557 0.140299 0.407383
C 2.430528 0.139736 0.399117
C 3.225972 0.608302 1.561834
C 2.459834 1.100379 2.787902
C 3.427702 1.54137 3.88159
C 3.042649 -0.328508 -0.766081
C 4.423507 -0.412514 -0.972827
C 5.112135 -0.86221 -2.093395
C 4.618955 -1.384073 -3.397487
C 3.129527 -1.50243 -3.697952
H 2.9879302153150125 -1.8966627162195526 -4.68254882917884
O 6.430076 -0.855583 -2.073452
H 0.530811 0.511058 1.33228
H 0.585462 -0.871198 0.234071
H 0.5786 0.748562 -0.416378
H 3.883134 1.417986 1.224026
H 3.885234 -0.208346 1.878116
H 1.824613 0.30568 3.18228
H 1.822568 1.945521 2.522872
H 4.064118 0.716694 4.194648
H 2.879773 1.891021 4.75292
H 4.062069 2.354518 3.536008
H 2.372771 -0.642662 -1.548919
H 5.050971 -0.084008 -0.152885
H 5.081282 -2.37046 -3.521374
H 5.083589 -0.757265 -4.167745
H 2.652432 -0.523676 -3.648152
H 2.650241 -2.175025 -2.986718
H 6.823163 -0.525235 -1.245911
