 29
 0.000000
  C 0.955495 0.140117 0.407006
  C 2.430627 0.138800 0.397257
  C 3.226136 0.606497 1.557642
  C 2.461595 1.098776 2.783836
  C 3.431042 1.539351 3.876428
  C 3.041198 -0.327907 -0.764111
  C 4.417864 -0.410804 -0.968257
  C 5.108716 -0.860332 -2.088791
  C 4.617767 -1.382181 -3.393073
  C 3.129959 -1.500444 -3.693038
  H 2.990822 -1.898481 -4.687376
  O 6.427885 -0.853052 -2.067464
  H 0.531660 0.511347 1.332097
  H 0.584599 -0.871052 0.233573
  H 0.578359 0.747715 -0.416947
  H 3.883423 1.415459 1.219285
  H 3.885433 -0.210011 1.873176
  H 1.826530 0.304135 3.178977
  H 1.824591 1.944433 2.519247
  H 4.067409 0.714314 4.188783
  H 2.884333 1.889394 4.748460
  H 4.065488 2.352159 3.530006
  H 2.373253 -0.642094 -1.547321
  H 5.044212 -0.082042 -0.147618
  H 5.081115 -2.367894 -3.516427
  H 5.083279 -0.755291 -4.162407
  H 2.651894 -0.524092 -3.645760
  H 2.649857 -2.173281 -2.985373
  H 6.820807 -0.522272 -1.238588
 29
 2.356363
  C 1.041698 0.146427 0.327723
  C 2.502350 0.171926 0.405712
  C 3.260513 0.621886 1.591144
  C 2.446709 1.101547 2.790623
  C 3.369486 1.531857 3.927155
  C 3.092668 -0.296042 -0.739592
  C 4.457815 -0.388291 -0.988242
  C 5.109847 -0.857995 -2.119626
  C 4.571075 -1.399933 -3.395788
  C 3.072601 -1.511772 -3.626701
  H 2.901968 -1.928410 -4.614338
  O 6.427996 -0.854769 -2.142792
  H 0.535466 0.432713 1.240638
  H 0.775070 -0.875737 0.030484
  H 0.685204 0.783719 -0.482581
  H 3.932677 1.431888 1.283688
  H 3.909992 -0.198549 1.918198
  H 1.797505 0.301700 3.150384
  H 1.820337 1.948808 2.507020
  H 3.993547 0.704173 4.256819
  H 2.787075 1.872549 4.779655
  H 4.016764 2.348594 3.615456
  H 2.359157 -0.619989 -1.469122
  H 5.110434 -0.046078 -0.193396
  H 5.027563 -2.388593 -3.519080
  H 5.012076 -0.789048 -4.191655
  H 2.596109 -0.536271 -3.587392
  H 2.612469 -2.174676 -2.899364
  H 6.850516 -0.511098 -1.333725
 29
 6.466419
  C 1.080355 0.166094 0.325166
  C 2.540516 0.206568 0.437518
  C 3.277940 0.639450 1.632351
  C 2.432200 1.113236 2.818317
  C 3.322994 1.536025 3.982771
  C 3.118875 -0.278371 -0.731070
  C 4.459894 -0.372690 -1.004677
  C 5.114371 -0.865192 -2.161767
  C 4.553764 -1.435473 -3.441454
  C 3.049374 -1.560656 -3.651776
  H 2.874374 -1.983329 -4.615846
  O 6.457585 -0.854412 -2.200902
  H 0.515193 0.332630 1.237870
  H 0.916822 -0.814009 -0.139353
  H 0.756438 0.895792 -0.423040
  H 3.962856 1.451594 1.343571
  H 3.921427 -0.189297 1.960705
  H 1.774902 0.310886 3.153957
  H 1.813898 1.960265 2.520986
  H 3.938015 0.706428 4.322888
  H 2.717858 1.870573 4.821370
  H 3.978290 2.354612 3.694751
  H 2.314237 -0.605871 -1.387700
  H 5.119216 -0.010987 -0.216841
  H 5.015936 -2.422405 -3.559317
  H 4.981006 -0.832961 -4.251115
  H 2.563463 -0.585403 -3.625475
  H 2.601736 -2.226446 -2.914240
  H 6.889038 -0.497981 -1.401566
 29
 12.405317
  C 1.118048 0.148911 0.273120
  C 2.577469 0.210531 0.432524
  C 3.296990 0.640739 1.636619
  C 2.422313 1.109260 2.802712
  C 3.282462 1.537018 3.989065
  C 3.154493 -0.280666 -0.735794
  C 4.511212 -0.379614 -1.033267
  C 5.122516 -0.868832 -2.173634
  C 4.523661 -1.431491 -3.414353
  C 3.014290 -1.536781 -3.556923
  H 2.788148 -1.968408 -4.530251
  O 6.447848 -0.867392 -2.247445
  H 0.515004 0.195265 1.165178
  H 1.050894 -0.779378 -0.332612
  H 0.802225 0.948291 -0.394497
  H 3.986671 1.453967 1.364087
  H 3.936197 -0.188211 1.973561
  H 1.761552 0.303025 3.121488
  H 1.805155 1.951499 2.489333
  H 3.894545 0.710750 4.343387
  H 2.655090 1.867295 4.813356
  H 3.939650 2.359912 3.717378
  H 2.305800 -0.609638 -1.352219
  H 5.185880 -0.018890 -0.263456
  H 4.970093 -2.421942 -3.544530
  H 4.925662 -0.836870 -4.240221
  H 2.545197 -0.557890 -3.511368
  H 2.593189 -2.192296 -2.799432
  H 6.904847 -0.506851 -1.453297
 29
 19.238592
  C 1.138074 0.146052 0.261243
  C 2.594015 0.223514 0.440284
  C 3.305334 0.652917 1.657010
  C 2.418530 1.113157 2.809378
  C 3.259924 1.543847 4.005657
  C 3.170091 -0.270402 -0.728737
  C 4.517277 -0.375889 -1.040173
  C 5.120552 -0.878417 -2.189707
  C 4.515345 -1.445220 -3.420022
  C 3.005737 -1.548493 -3.553399
  H 2.775473 -1.982648 -4.521794
  O 6.438968 -0.882519 -2.275534
  H 0.525117 0.060002 1.140706
  H 1.139744 -0.697640 -0.474916
  H 0.801417 1.022074 -0.301146
  H 3.994519 1.464230 1.397960
  H 3.940966 -0.171527 1.996221
  H 1.757695 0.301375 3.117884
  H 1.799062 1.951836 2.487731
  H 3.873115 0.720344 4.366248
  H 2.619952 1.868790 4.822664
  H 3.915603 2.371693 3.743224
  H 2.275783 -0.612101 -1.304741
  H 5.200144 -0.014544 -0.280180
  H 4.959788 -2.437155 -3.545976
  H 4.913411 -0.853787 -4.250255
  H 2.538492 -0.569831 -3.509190
  H 2.587799 -2.200102 -2.792195
  H 6.897651 -0.523737 -1.498064
 29
 30.015107
  C 1.161309 0.139038 0.264111
  C 2.603530 0.220506 0.453818
  C 3.305165 0.655739 1.669363
  C 2.413713 1.115824 2.806084
  C 3.245098 1.556173 4.004157
  C 3.181351 -0.273386 -0.713728
  C 4.524071 -0.384290 -1.035760
  C 5.117476 -0.885920 -2.191887
  C 4.504568 -1.445950 -3.426445
  C 2.994070 -1.545216 -3.559209
  H 2.758122 -1.975981 -4.538720
  O 6.430847 -0.895364 -2.283593
  H 0.544592 -0.017223 1.138541
  H 1.229338 -0.664937 -0.549079
  H 0.806564 1.040862 -0.238607
  H 3.989006 1.462716 1.416817
  H 3.934511 -0.159130 2.012696
  H 1.751827 0.299652 3.115243
  H 1.790915 1.952745 2.472858
  H 3.860059 0.735990 4.373626
  H 2.597857 1.882971 4.815190
  H 3.899914 2.386441 3.740856
  H 2.237653 -0.611779 -1.255242
  H 5.214688 -0.032060 -0.279838
  H 4.946830 -2.441381 -3.559345
  H 4.903099 -0.848908 -4.256417
  H 2.532858 -0.568785 -3.507275
  H 2.579458 -2.198995 -2.804032
  H 6.899053 -0.538550 -1.497582
 29
 40.030384
  C 1.161958 0.097785 0.268587
  C 2.612477 0.197527 0.458111
  C 3.312921 0.658604 1.670052
  C 2.406603 1.123852 2.809147
  C 3.226342 1.597425 4.000540
  C 3.193923 -0.300349 -0.710695
  C 4.534606 -0.422338 -1.030444
  C 5.123219 -0.911501 -2.195713
  C 4.497932 -1.433181 -3.434412
  C 2.990212 -1.498960 -3.551914
  H 2.738028 -1.899385 -4.533506
  O 6.438284 -0.940582 -2.290497
  H 0.553760 -0.137984 1.128812
  H 1.288456 -0.656486 -0.623746
  H 0.774740 1.016736 -0.175487
  H 3.992796 1.480440 1.401119
  H 3.963024 -0.155771 2.028691
  H 1.765267 0.309989 3.127692
  H 1.774248 1.935787 2.467595
  H 3.854041 0.797476 4.381496
  H 2.573464 1.923790 4.804956
  H 3.863703 2.432609 3.726432
  H 2.197690 -0.627558 -1.230981
  H 5.227726 -0.097655 -0.263301
  H 4.919238 -2.428435 -3.591962
  H 4.899672 -0.828627 -4.251102
  H 2.547910 -0.512460 -3.470771
  H 2.569713 -2.163730 -2.805721
  H 6.911300 -0.607058 -1.501532
 29
 51.031180
  C 1.161983 0.060688 0.295177
  C 2.609828 0.169532 0.467166
  C 3.309852 0.658094 1.665558
  C 2.404898 1.127953 2.798002
  C 3.224709 1.639308 3.977513
  C 3.197414 -0.328802 -0.695548
  C 4.540549 -0.462968 -1.011288
  C 5.127817 -0.931533 -2.178942
  C 4.498143 -1.412284 -3.439606
  C 2.985641 -1.448335 -3.563104
  H 2.727492 -1.816615 -4.560132
  O 6.447374 -0.978829 -2.265929
  H 0.571931 -0.227952 1.157514
  H 1.320135 -0.669574 -0.662314
  H 0.740859 0.983911 -0.113900
  H 3.971932 1.481487 1.380412
  H 3.970387 -0.138375 2.033275
  H 1.779723 0.310345 3.134832
  H 1.756595 1.921202 2.445294
  H 3.870952 0.855336 4.370769
  H 2.568849 1.970338 4.782107
  H 3.847790 2.482948 3.682632
  H 2.145937 -0.648838 -1.207337
  H 5.232413 -0.175021 -0.230824
  H 4.904129 -2.411886 -3.622635
  H 4.914135 -0.790895 -4.239456
  H 2.560947 -0.456391 -3.453103
  H 2.552157 -2.127673 -2.836686
  H 6.915814 -0.672843 -1.471687
 29
 60.222913
  C 1.150446 -0.006898 0.337478
  C 2.602032 0.125625 0.481219
  C 3.309625 0.665065 1.660360
  C 2.408708 1.139766 2.792865
  C 3.228001 1.708851 3.936331
  C 3.193725 -0.374874 -0.675241
  C 4.536259 -0.532750 -0.982224
  C 5.126743 -0.969993 -2.159205
  C 4.502998 -1.374061 -3.447139
  C 2.991126 -1.358107 -3.589023
  H 2.736169 -1.665316 -4.602774
  O 6.445635 -1.051964 -2.231532
  H 0.590244 -0.345590 1.200599
  H 1.322513 -0.714948 -0.689198
  H 0.692854 0.899217 -0.041069
  H 3.945155 1.500683 1.341527
  H 3.994647 -0.100262 2.038950
  H 1.812515 0.308351 3.166974
  H 1.727060 1.906291 2.426326
  H 3.902475 0.960565 4.338954
  H 2.578927 2.041399 4.738226
  H 3.816314 2.558630 3.606675
  H 2.090554 -0.698977 -1.186864
  H 5.227760 -0.305432 -0.172613
  H 4.883256 -2.376899 -3.672571
  H 4.948460 -0.727096 -4.211972
  H 2.594190 -0.361353 -3.432099
  H 2.529088 -2.060906 -2.904965
  H 6.911316 -0.789963 -1.418101
 29
 69.638695
  C 1.159160 -0.031793 0.368180
  C 2.592311 0.098217 0.480772
  C 3.303807 0.666592 1.652240
  C 2.407325 1.147824 2.779851
  C 3.224386 1.744131 3.896987
  C 3.195340 -0.398128 -0.655371
  C 4.537062 -0.569681 -0.961018
  C 5.127909 -0.987319 -2.142205
  C 4.502835 -1.346233 -3.445888
  C 2.990452 -1.298691 -3.589064
  H 2.730691 -1.568946 -4.611675
  O 6.447704 -1.090663 -2.210184
  H 0.623729 -0.386171 1.240203
  H 1.324183 -0.754500 -0.710921
  H 0.678630 0.856515 -0.005143
  H 3.926023 1.504406 1.315384
  H 3.998339 -0.082514 2.039825
  H 1.826296 0.315502 3.175359
  H 1.713398 1.899307 2.406368
  H 3.907743 1.016756 4.303647
  H 2.582880 2.080125 4.692905
  H 3.794287 2.589584 3.548252
  H 2.044365 -0.735426 -1.184621
  H 5.226509 -0.376234 -0.138382
  H 4.866297 -2.349972 -3.699272
  H 4.962430 -0.684548 -4.191164
  H 2.611930 -0.301387 -3.400490
  H 2.516521 -2.014305 -2.928945
  H 6.911527 -0.858477 -1.388017
 29
 78.483013
  C 1.130102 -0.065377 0.418954
  C 2.574767 0.066306 0.488469
  C 3.297100 0.667116 1.637729
  C 2.409234 1.162803 2.775101
  C 3.244179 1.802835 3.873960
  C 3.192776 -0.431571 -0.637795
  C 4.532692 -0.616175 -0.940129
  C 5.131411 -1.007038 -2.123524
  C 4.516997 -1.311732 -3.452471
  C 3.007013 -1.230806 -3.612035
  H 2.754930 -1.456648 -4.648835
  O 6.448834 -1.132856 -2.177021
  H 0.623804 -0.427726 1.300729
  H 1.277257 -0.834584 -0.752235
  H 0.616001 0.816053 0.029745
  H 3.897077 1.502004 1.273829
  H 4.010650 -0.068357 2.030133
  H 1.848837 0.332065 3.199239
  H 1.697392 1.894750 2.397340
  H 3.948466 1.093585 4.286299
  H 2.609808 2.148699 4.676994
  H 3.796755 2.651521 3.495236
  H 1.963166 -0.808918 -1.213796
  H 5.209549 -0.468866 -0.105584
  H 4.865449 -2.310748 -3.735746
  H 4.997553 -0.632940 -4.166846
  H 2.643684 -0.234937 -3.388637
  H 2.512057 -1.963819 -2.985766
  H 6.905220 -0.936897 -1.339709
 29
 86.744991
  C 1.107339 -0.088394 0.473000
  C 2.551054 0.036837 0.492647
  C 3.288569 0.670313 1.623076
  C 2.415003 1.179106 2.763224
  C 3.263286 1.852157 3.831851
  C 3.184156 -0.460433 -0.614995
  C 4.519096 -0.660364 -0.921370
  C 5.126874 -1.023687 -2.105233
  C 4.532789 -1.271864 -3.450397
  C 3.026917 -1.160225 -3.630416
  H 2.788420 -1.340620 -4.677015
  O 6.445508 -1.172309 -2.145166
  H 0.627472 -0.450657 1.371698
  H 1.218501 -0.916133 -0.788720
  H 0.570302 0.762279 0.063758
  H 3.873508 1.507296 1.229880
  H 4.012802 -0.048711 2.017993
  H 1.873215 0.352587 3.215615
  H 1.688540 1.893668 2.383284
  H 3.985964 1.156803 4.246995
  H 2.637360 2.209395 4.642240
  H 3.800613 2.701183 3.422937
  H 1.871570 -0.886664 -1.242875
  H 5.187435 -0.559281 -0.071237
  H 4.870303 -2.266383 -3.762834
  H 5.036336 -0.575252 -4.131166
  H 2.674384 -0.167759 -3.372632
  H 2.510865 -1.911545 -3.041256
  H 6.892862 -1.012338 -1.295553
 29
 93.476636
  C 1.088208 -0.127285 0.530015
  C 2.527412 -0.008227 0.494641
  C 3.279679 0.673556 1.600961
  C 2.419731 1.202868 2.738852
  C 3.279979 1.922209 3.766987
  C 3.185456 -0.507364 -0.584360
  C 4.512005 -0.728797 -0.893832
  C 5.128637 -1.052650 -2.083155
  C 4.545927 -1.212953 -3.445989
  C 3.047654 -1.049614 -3.626679
  H 2.811947 -1.158920 -4.682119
  O 6.443755 -1.237686 -2.114151
  H 0.636923 -0.484411 1.449277
  H 1.149619 -1.037843 -0.838763
  H 0.525921 0.683964 0.095269
  H 3.843365 1.508420 1.169355
  H 4.017743 -0.023452 2.004034
  H 1.900979 0.383442 3.228809
  H 1.674597 1.892669 2.351781
  H 4.026403 1.246412 4.190351
  H 2.661160 2.297250 4.583739
  H 3.797799 2.770031 3.317655
  H 1.780682 -1.004295 -1.290300
  H 5.168128 -0.695697 -0.024327
  H 4.858294 -2.197268 -3.809531
  H 5.074050 -0.494277 -4.081599
  H 2.718910 -0.065632 -3.310309
  H 2.507566 -1.823671 -3.088049
  H 6.883535 -1.131232 -1.252564
 29
 98.148574
  C 1.071455 -0.149248 0.579620
  C 2.502698 -0.044195 0.490482
  C 3.271062 0.678615 1.572590
  C 2.423725 1.232644 2.708767
  C 3.298898 1.987651 3.698451
  C 3.189197 -0.546524 -0.555465
  C 4.506084 -0.787230 -0.870954
  C 5.131253 -1.073933 -2.062375
  C 4.558889 -1.151302 -3.438431
  C 3.066817 -0.940314 -3.613788
  H 2.830839 -0.981978 -4.674309
  O 6.441336 -1.295715 -2.085960
  H 0.648863 -0.489474 1.517917
  H 1.067720 -1.170246 -0.896919
  H 0.480324 0.623641 0.109248
  H 3.814420 1.501912 1.106596
  H 4.018866 -0.005693 1.984026
  H 1.921599 0.423362 3.233456
  H 1.665210 1.905359 2.315748
  H 4.056913 1.330744 4.125350
  H 2.694210 2.380108 4.513985
  H 3.800287 2.823950 3.216565
  H 1.684525 -1.136818 -1.351398
  H 5.148687 -0.817990 0.011711
  H 4.847466 -2.123285 -3.850275
  H 5.109404 -0.413527 -4.031078
  H 2.759959 0.029010 -3.239638
  H 2.506804 -1.731663 -3.122275
  H 6.872541 -1.241284 -1.216469
