 22
 0.000000
  C 1.000527 0.171371 0.477925
  C 2.458519 0.132496 0.380220
  H 3.058225 0.467590 1.213863
  C 3.039570 -0.333250 -0.779531
  C 4.423791 -0.421161 -0.999313
  C 5.080048 -0.871664 -2.121691
  C 4.608338 -1.387678 -3.407487
  C 3.128770 -1.518231 -3.734244
  C 2.938586 -2.082617 -5.140634
  H 6.162974 -0.853749 -2.076964
  H 0.649916 0.554441 1.431666
  H 0.587910 -0.828397 0.325033
  H 0.587319 0.787255 -0.324029
  H 2.368485 -0.648303 -1.563203
  H 5.053602 -0.092214 -0.180345
  H 5.086410 -2.370086 -3.534610
  H 5.087230 -0.766351 -4.178504
  H 2.645196 -0.541022 -3.689250
  H 2.644519 -2.192843 -3.026294
  H 3.387707 -1.432682 -5.887968
  H 1.879970 -2.174059 -5.369552
  H 3.387133 -3.069151 -5.231171
 22
 12.405248
  C 1.070911 0.248332 0.669634
  C 2.536384 0.095096 0.286981
  H 3.261216 0.389855 1.019973
  C 2.838201 -0.390424 -0.921584
  C 4.197709 -0.417104 -0.989325
  C 4.965691 -0.855765 -2.082087
  C 4.592023 -1.383521 -3.396509
  C 3.138196 -1.554154 -3.823151
  C 3.056743 -2.122105 -5.239611
  H 6.040535 -0.802656 -1.949895
  H 0.930848 0.648303 1.665346
  H 0.570605 -0.713660 0.595344
  H 0.570084 0.891356 -0.049396
  H 2.141125 -0.687633 -1.660716
  H 4.778649 -0.080190 -0.150701
  H 5.123371 -2.346976 -3.494779
  H 5.124031 -0.756012 -4.133686
  H 2.627301 -0.590738 -3.809192
  H 2.627649 -2.240070 -3.146352
  H 3.536843 -1.459693 -5.956041
  H 2.018548 -2.242048 -5.539270
  H 3.536449 -3.096071 -5.299977
 22
 47.481419
  C 1.139613 0.297260 0.788315
  C 2.567420 0.051736 0.177942
  H 3.325348 0.333553 0.878266
  C 2.667593 -0.436956 -1.036380
  C 4.003570 -0.418814 -0.992063
  C 4.884449 -0.849121 -2.062253
  C 4.592286 -1.380880 -3.385582
  C 3.161443 -1.574572 -3.868828
  C 3.137139 -2.138249 -5.286035
  H 5.944189 -0.765449 -1.853563
  H 1.186913 0.698577 1.786117
  H 0.595137 -0.628570 0.793524
  H 0.595291 0.968978 0.151009
  H 1.944726 -0.722662 -1.746227
  H 4.607105 -0.084304 -0.160244
  H 5.166135 -2.329873 -3.450805
  H 5.166941 -0.741322 -4.088902
  H 2.632534 -0.621207 -3.874329
  H 2.646879 -2.265811 -3.201039
  H 3.629270 -1.464163 -5.982408
  H 2.114880 -2.276466 -5.621994
  H 3.636643 -3.102384 -5.331767
 22
 94.149121
  C 1.129440 0.317711 0.837875
  C 2.636424 0.032682 0.131487
  H 3.319709 0.337524 0.896285
  C 2.622431 -0.453254 -1.076521
  C 3.940406 -0.396614 -0.938314
  C 4.888983 -0.847285 -2.063373
  C 4.606881 -1.379035 -3.389971
  C 3.182127 -1.576173 -3.874187
  C 3.168308 -2.143596 -5.289577
  H 5.936331 -0.753834 -1.827394
  H 1.239316 0.716197 1.835552
  H 0.582909 -0.629298 0.859562
  H 0.583458 1.019686 0.201083
  H 1.879239 -0.737725 -1.786667
  H 4.626296 -0.096891 -0.186595
  H 5.155423 -2.328014 -3.475867
  H 5.155574 -0.750093 -4.105451
  H 2.658565 -0.625618 -3.877400
  H 2.661754 -2.269097 -3.220996
  H 3.664948 -1.470193 -5.983844
  H 2.146857 -2.282109 -5.631696
  H 3.667300 -3.107736 -5.332576
 22
 122.539417
  C 0.967303 0.358272 0.936638
  C 2.837880 -0.022734 -0.004842
  H 3.279196 0.336946 0.898505
  C 2.584148 -0.481004 -1.150790
  C 4.061587 -0.418383 -0.989874
  C 4.889396 -0.827607 -2.014712
  C 4.615617 -1.369050 -3.382975
  C 3.184973 -1.584365 -3.864430
  C 3.180676 -2.141016 -5.289258
  H 5.949532 -0.763650 -1.817402
  H 1.222807 0.744165 1.904044
  H 0.524744 -0.617860 0.936338
  H 0.527306 1.075761 0.259960
  H 1.833361 -0.754234 -1.847760
  H 4.768997 -0.111840 -0.221045
  H 5.142995 -2.320299 -3.442559
  H 5.130539 -0.719388 -4.092876
  H 2.659963 -0.632562 -3.878530
  H 2.670759 -2.292593 -3.218560
  H 3.678688 -1.460440 -5.972567
  H 2.161779 -2.289139 -5.638721
  H 3.690810 -3.102694 -5.334360
 22
 127.988609
  C 0.695080 0.480843 1.062997
  C 3.042536 -0.038732 -0.055979
  H 3.281874 0.263016 0.947852
  C 2.636196 -0.597582 -1.080559
  C 4.200548 -0.444951 -1.035105
  C 4.978130 -0.841056 -2.073773
  C 4.663071 -1.378220 -3.433564
  C 3.221525 -1.586492 -3.874925
  C 3.182035 -2.121687 -5.307395
  H 6.048541 -0.795982 -1.920190
  H 1.013812 0.854284 2.017588
  H 0.279456 -0.502359 1.034251
  H 0.362146 1.198654 0.343306
  H 1.852871 -0.943312 -1.704731
  H 4.927672 -0.110281 -0.291537
  H 5.191107 -2.336267 -3.517560
  H 5.159637 -0.713914 -4.147899
  H 2.682575 -0.634700 -3.859371
  H 2.723872 -2.312704 -3.229116
  H 3.653411 -1.425132 -6.001366
  H 2.153579 -2.287099 -5.625206
  H 3.702502 -3.080828 -5.375896
 22
 128.802991
  C 0.336259 0.570464 1.300406
  C 3.208487 -0.065524 -0.070637
  H 3.455181 0.236188 0.920618
  C 2.745177 -0.596465 -1.112778
  C 4.327001 -0.473516 -1.079754
  C 5.068129 -0.871698 -2.131888
  C 4.719087 -1.377649 -3.494162
  C 3.264407 -1.559957 -3.919428
  C 3.185505 -2.151615 -5.325211
  H 6.141012 -0.831011 -2.010758
  H 0.723633 0.919839 2.231653
  H -0.068330 -0.421093 1.250061
  H 0.076468 1.287627 0.551909
  H 2.001432 -0.925345 -1.792967
  H 5.070412 -0.145656 -0.336656
  H 5.216352 -2.346974 -3.600566
  H 5.226834 -0.735379 -4.217812
  H 2.726314 -0.614237 -3.892780
  H 2.773361 -2.269288 -3.249873
  H 3.649709 -1.497248 -6.059846
  H 2.145139 -2.316457 -5.612691
  H 3.691491 -3.117937 -5.361262
 22
 130.450824
  C 0.058550 0.643422 1.537097
  C 3.328361 -0.090143 -0.116340
  H 3.570042 0.177976 0.887296
  C 2.813376 -0.563391 -1.161002
  C 4.403084 -0.484845 -1.134031
  C 5.139203 -0.889013 -2.194121
  C 4.774295 -1.386003 -3.555423
  C 3.315954 -1.566480 -3.960514
  C 3.216731 -2.187498 -5.352511
  H 6.212125 -0.859486 -2.079453
  H 0.472796 0.961841 2.472484
  H -0.384453 -0.326248 1.475741
  H -0.197997 1.388556 0.817876
  H 2.053622 -0.837902 -1.845691
  H 5.166562 -0.156861 -0.408643
  H 5.251032 -2.373616 -3.651070
  H 5.294071 -0.770926 -4.295033
  H 2.787477 -0.609605 -3.955498
  H 2.817467 -2.248186 -3.262210
  H 3.691603 -1.560695 -6.106232
  H 2.174957 -2.342112 -5.625955
  H 3.700484 -3.166035 -5.368755
 22
 132.408599
  C -0.202687 0.717519 1.772331
  C 3.430883 -0.108424 -0.179537
  H 3.636260 0.138975 0.838245
  C 2.871641 -0.539485 -1.219987
  C 4.473716 -0.499562 -1.188020
  C 5.210758 -0.919135 -2.242843
  C 4.833699 -1.408297 -3.602729
  C 3.366568 -1.574229 -3.995034
  C 3.244366 -2.213873 -5.374627
  H 6.285061 -0.901554 -2.129053
  H 0.232643 1.006306 2.701676
  H -0.683891 -0.238627 1.707412
  H -0.467724 1.488814 1.081595
  H 2.090588 -0.778378 -1.892960
  H 5.255979 -0.147186 -0.493087
  H 5.298200 -2.397845 -3.707455
  H 5.354604 -0.802863 -4.347773
  H 2.848216 -0.611084 -3.994627
  H 2.867587 -2.234497 -3.286096
  H 3.729125 -1.610871 -6.140744
  H 2.200115 -2.351664 -5.637436
  H 3.703868 -3.200605 -5.377198
 22
 132.554675
  C -0.523217 0.811444 2.060544
  C 3.530079 -0.112783 -0.234866
  H 3.708710 0.117350 0.791532
  C 2.940188 -0.507958 -1.274356
  C 4.563970 -0.508769 -1.242274
  C 5.282307 -0.952522 -2.302177
  C 4.889493 -1.462514 -3.650507
  C 3.420693 -1.608671 -4.033783
  C 3.284947 -2.233845 -5.419486
  H 6.357657 -0.939379 -2.203390
  H -0.053656 1.085244 2.979644
  H -1.012204 -0.135524 1.995479
  H -0.802510 1.595600 1.386759
  H 2.148227 -0.712068 -1.946971
  H 5.366599 -0.138529 -0.581151
  H 5.357089 -2.451060 -3.762174
  H 5.398248 -0.846490 -4.401629
  H 2.920991 -0.635880 -4.028352
  H 2.912191 -2.261479 -3.323075
  H 3.779249 -1.633963 -6.179149
  H 2.236675 -2.350263 -5.683145
  H 3.728692 -3.230137 -5.432144
 22
 132.426006
  C -0.839664 0.904329 2.316373
  C 3.624640 -0.115129 -0.288169
  H 3.790594 0.146727 0.732955
  C 3.014370 -0.509204 -1.311097
  C 4.652795 -0.525061 -1.282009
  C 5.351036 -1.007783 -2.343398
  C 4.941208 -1.541083 -3.680095
  C 3.466731 -1.645042 -4.052970
  C 3.308873 -2.227923 -5.456064
  H 6.431794 -0.957477 -2.278791
  H -0.337380 1.228400 3.201164
  H -1.288547 -0.067403 2.297564
  H -1.160906 1.645173 1.615103
  H 2.216409 -0.732196 -1.972362
  H 5.464425 -0.120428 -0.650405
  H 5.424575 -2.508589 -3.828978
  H 5.409838 -0.874468 -4.417110
  H 3.001446 -0.657807 -4.030701
  H 2.947841 -2.303478 -3.355335
  H 3.839729 -1.632188 -6.196453
  H 2.256545 -2.273815 -5.731884
  H 3.695179 -3.242452 -5.494682
 22
 132.936898
  C -1.177326 1.017455 2.604382
  C 3.711563 -0.140538 -0.330060
  H 3.856842 0.122353 0.695837
  C 3.084998 -0.522936 -1.354352
  C 4.732030 -0.544547 -1.331570
  C 5.416734 -1.020853 -2.399377
  C 4.991801 -1.535042 -3.737438
  C 3.510758 -1.649784 -4.101195
  C 3.349933 -2.260450 -5.490739
  H 6.495638 -0.978042 -2.341733
  H -0.653620 1.298121 3.492366
  H -1.637677 0.054269 2.554012
  H -1.511199 1.784964 1.943547
  H 2.279733 -0.737625 -2.007635
  H 5.558949 -0.158582 -0.709446
  H 5.475808 -2.504680 -3.901515
  H 5.462297 -0.869209 -4.467720
  H 3.044751 -0.659968 -4.093675
  H 2.990720 -2.294088 -3.392771
  H 3.892540 -1.691559 -6.237483
  H 2.300162 -2.287874 -5.774101
  H 3.719823 -3.287654 -5.504815
 22
 132.872723
  C -1.506831 1.137752 2.880343
  C 3.773585 -0.173244 -0.369867
  H 3.895026 0.065038 0.664443
  C 3.135415 -0.508030 -1.402370
  C 4.789837 -0.562984 -1.370483
  C 5.469023 -1.034220 -2.446720
  C 5.038381 -1.515579 -3.793312
  C 3.557697 -1.674262 -4.131409
  C 3.389286 -2.288286 -5.519465
  H 6.549006 -0.994648 -2.393181
  H -0.955879 1.367189 3.763733
  H -1.979224 0.180121 2.794903
  H -1.837931 1.937783 2.256178
  H 2.332193 -0.694402 -2.064638
  H 5.622352 -0.231507 -0.723687
  H 5.536439 -2.477409 -3.961635
  H 5.490916 -0.842311 -4.530532
  H 3.060360 -0.702966 -4.115928
  H 3.071629 -2.334133 -3.407145
  H 3.898177 -1.695170 -6.277701
  H 2.335524 -2.354349 -5.780953
  H 3.795653 -3.295545 -5.546348
 22
 133.186762
  C -1.834600 1.254374 3.144007
  C 3.823022 -0.211159 -0.403545
  H 3.920947 -0.020488 0.643796
  C 3.171397 -0.444723 -1.454529
  C 4.834803 -0.588199 -1.398095
  C 5.512082 -1.031777 -2.489517
  C 5.077135 -1.481914 -3.845800
  C 3.600746 -1.711066 -4.145982
  C 3.424944 -2.321574 -5.533729
  H 6.590357 -1.055530 -2.414391
  H -1.259612 1.441211 4.023452
  H -2.308770 0.302649 3.021543
  H -2.163459 2.079388 2.550740
  H 2.367989 -0.568656 -2.132502
  H 5.671635 -0.318781 -0.727460
  H 5.606918 -2.425766 -4.027915
  H 5.494901 -0.787209 -4.580309
  H 3.055305 -0.770081 -4.111288
  H 3.173946 -2.399045 -3.416320
  H 3.888540 -1.699137 -6.298193
  H 2.369092 -2.427750 -5.769890
  H 3.874005 -3.311915 -5.581579
