 14
 0.000000
  C 0.971274 0.133066 0.391026
  C 2.428144 0.113849 0.335582
  H 2.997142 0.455834 1.188729
  C 3.089182 -0.336169 -0.786332
  C 4.480601 -0.379797 -0.893298
  C 5.141331 -0.834433 -2.019041
  H 4.624827 -1.193322 -2.903078
  O 6.426052 -0.886137 -2.152098
  H 0.578889 0.504353 1.331710
  H 0.581810 -0.871028 0.204208
  H 0.580917 0.743609 -0.426867
  H 2.498857 -0.674794 -1.627707
  H 5.071690 -0.038792 -0.051910
  H 6.936794 -0.570989 -1.376841
 14
 0.424893
  C 0.975912 0.203062 0.360040
  C 2.417874 -0.004102 0.357843
  H 2.984279 0.283756 1.235066
  C 3.095531 -0.501139 -0.733782
  C 4.487511 -0.448634 -0.843021
  C 5.146634 -0.853984 -1.990535
  H 4.599590 -1.323906 -2.803446
  O 6.408512 -0.735929 -2.224079
  H 0.608728 0.580591 1.309845
  H 0.443483 -0.713594 0.084775
  H 0.724285 0.912700 -0.437025
  H 2.529223 -0.895821 -1.567359
  H 5.055264 -0.017695 -0.029003
  H 6.932860 -0.319113 -1.504748
 14
 2.548083
  C 0.996412 0.263312 0.331527
  C 2.402695 -0.113211 0.404370
  H 2.950845 0.102020 1.312957
  C 3.087496 -0.641937 -0.670618
  C 4.467016 -0.496117 -0.818715
  C 5.130650 -0.894954 -1.964805
  H 4.622241 -1.492836 -2.716477
  O 6.357508 -0.630742 -2.264934
  H 0.622177 0.661221 1.268072
  H 0.372023 -0.564516 -0.008342
  H 0.903048 1.024378 -0.452448
  H 2.528707 -1.099918 -1.476261
  H 5.013767 0.041620 -0.053790
  H 6.849042 -0.105173 -1.600319
 14
 5.973449
  C 1.027267 0.325917 0.312864
  C 2.378406 -0.206207 0.437100
  H 2.889545 -0.104885 1.384488
  C 3.074504 -0.737246 -0.633736
  C 4.434642 -0.509409 -0.816062
  C 5.119663 -0.924659 -1.943493
  H 4.668611 -1.628691 -2.635570
  O 6.306557 -0.552460 -2.293210
  H 0.648400 0.731769 1.249175
  H 0.330576 -0.402396 -0.092917
  H 1.081964 1.121343 -0.437752
  H 2.531041 -1.270280 -1.403587
  H 4.940853 0.131512 -0.105655
  H 6.748981 0.069450 -1.677525
 14
 10.681205
  C 1.100329 0.392117 0.276413
  C 2.378402 -0.282712 0.463983
  H 2.839086 -0.268847 1.444641
  C 3.093793 -0.826960 -0.595673
  C 4.419963 -0.496224 -0.831255
  C 5.121014 -0.920657 -1.943576
  H 4.713253 -1.685282 -2.597709
  O 6.274158 -0.479564 -2.328049
  H 0.720082 0.832392 1.190978
  H 0.341146 -0.253029 -0.170386
  H 1.298694 1.170832 -0.466756
  H 2.568689 -1.431279 -1.327219
  H 4.885651 0.219431 -0.165812
  H 6.668220 0.204946 -1.750165
 14
 16.555408
  C 1.164482 0.465710 0.249687
  C 2.352806 -0.337644 0.487347
  H 2.745849 -0.408933 1.494473
  C 3.101006 -0.901034 -0.556448
  C 4.385696 -0.489777 -0.848985
  C 5.115377 -0.952267 -1.926382
  H 4.765005 -1.793089 -2.514693
  O 6.222745 -0.445213 -2.364788
  H 0.779338 0.916961 1.154756
  H 0.368296 -0.095584 -0.243083
  H 1.468320 1.234802 -0.465624
  H 2.615332 -1.613437 -1.215809
  H 4.807784 0.302017 -0.242218
  H 6.565037 0.310348 -1.841887
 14
 22.538777
  C 1.225222 0.521723 0.243739
  C 2.348198 -0.362066 0.512103
  H 2.654736 -0.550043 1.533860
  C 3.109532 -0.926472 -0.533560
  C 4.356944 -0.460934 -0.877472
  C 5.095110 -0.962754 -1.935077
  H 4.761051 -1.839578 -2.478973
  O 6.199566 -0.464492 -2.390187
  H 0.818503 0.969290 1.142869
  H 0.420169 0.018963 -0.300605
  H 1.605232 1.285893 -0.439885
  H 2.655208 -1.714029 -1.127783
  H 4.748204 0.385533 -0.327820
  H 6.523915 0.324389 -1.908425
 14
 29.767577
  C 1.296333 0.601412 0.259212
  C 2.317741 -0.401254 0.521762
  H 2.490191 -0.738282 1.535146
  C 3.141340 -0.952306 -0.514161
  C 4.332488 -0.420054 -0.924194
  C 5.085334 -0.976243 -1.956640
  H 4.770054 -1.894426 -2.439578
  O 6.184643 -0.491457 -2.435903
  H 0.866526 1.000795 1.171369
  H 0.493930 0.169861 -0.348874
  H 1.700161 1.402788 -0.365602
  H 2.767454 -1.844466 -1.011803
  H 4.698833 0.474289 -0.438129
  H 6.492744 0.334447 -2.009337
 14
 20.226923
  C 1.381966 0.659326 0.268909
  C 2.287910 -0.455857 0.498988
  H 2.311421 -0.913582 1.480843
  C 3.153729 -0.981649 -0.480187
  C 4.279605 -0.367913 -0.987625
  C 5.040002 -0.967293 -1.979499
  H 4.729301 -1.906163 -2.425352
  O 6.155920 -0.514989 -2.463252
  H 0.928397 1.021832 1.186982
  H 0.585867 0.303686 -0.396019
  H 1.830003 1.474978 -0.301171
  H 2.898816 -1.965501 -0.858957
  H 4.589600 0.582050 -0.575310
  H 6.459242 0.335271 -2.075682
 14
 11.792300
  C 1.499316 0.707735 0.286148
  C 2.265783 -0.511773 0.488868
  H 2.094696 -1.079534 1.396763
  C 3.159807 -1.030359 -0.436232
  C 4.249168 -0.366889 -0.989459
  C 5.022316 -0.968655 -1.961828
  H 4.781374 -1.961909 -2.323930
  O 6.076526 -0.463588 -2.522135
  H 1.025374 1.065772 1.197149
  H 0.707752 0.471185 -0.438027
  H 2.067144 1.490706 -0.216220
  H 3.010376 -2.067651 -0.718887
  H 4.521478 0.601477 -0.593728
  H 6.324626 0.422786 -2.203502
 14
 6.726530
  C 1.617678 0.738962 0.291916
  C 2.233093 -0.568134 0.472777
  H 1.924864 -1.167649 1.319865
  C 3.178290 -1.087638 -0.392778
  C 4.207530 -0.369948 -1.005723
  C 4.991231 -0.952672 -1.983535
  H 4.746996 -1.934868 -2.374235
  O 6.036271 -0.428448 -2.538930
  H 1.186124 1.136139 1.204927
  H 0.794240 0.610449 -0.422336
  H 2.280465 1.440413 -0.210721
  H 3.121378 -2.150041 -0.604500
  H 4.429188 0.629221 -0.658152
  H 6.275973 0.460877 -2.211300
 14
 6.719145
  C 1.737417 0.742329 0.229644
  C 2.176020 -0.630758 0.436991
  H 1.751559 -1.201742 1.250382
  C 3.190183 -1.171092 -0.322626
  C 4.197245 -0.408601 -0.933296
  C 4.970835 -0.911909 -1.960397
  H 4.761661 -1.890926 -2.379039
  O 5.926030 -0.289086 -2.570915
  H 1.350710 1.207504 1.130140
  H 0.917184 0.737469 -0.498596
  H 2.522933 1.293351 -0.285934
  H 3.177676 -2.237145 -0.515718
  H 4.467228 0.542316 -0.494413
  H 6.127373 0.605167 -2.225351
