 23
 0.000000
  C 1.018728 0.109195 0.322242
  C 2.493193 0.125587 0.363532
  C 3.239934 0.602960 1.551752
  C 2.418057 1.080958 2.741656
  H 3.086130 1.400781 3.538033
  C 3.155396 -0.330323 -0.771271
  C 4.538850 -0.395531 -0.934474
  C 5.194789 -0.852911 -2.074573
  C 4.537641 -1.346404 -3.304258
  H 3.456948 -1.329040 -3.261438
  O 6.506073 -0.876785 -2.135624
  H 0.560877 0.475024 1.232836
  H 0.664657 -0.905374 0.134401
  H 0.664992 0.712254 -0.515143
  H 3.899403 1.418376 1.235423
  H 3.899433 -0.204608 1.887480
  H 1.787069 0.285968 3.132569
  H 1.787250 1.925552 2.474043
  H 2.531594 -0.659070 -1.589590
  H 5.156603 -0.064825 -0.110603
  H 4.882202 -2.361736 -3.503418
  H 4.882497 -0.750626 -4.150147
  H 6.960174 -0.554391 -1.333686
 23
 14.104129
  C 1.018035 0.128568 0.368473
  C 2.528637 0.084297 0.261123
  C 3.314013 0.556135 1.436816
  C 2.527406 1.046504 2.656747
  H 3.234168 1.354474 3.425495
  C 2.970908 -0.382388 -0.899803
  C 4.319008 -0.383351 -0.903604
  C 5.128032 -0.819144 -1.991023
  C 4.614520 -1.337218 -3.279240
  H 3.537868 -1.357878 -3.328725
  O 6.429683 -0.788488 -1.921293
  H 0.654330 0.506686 1.309772
  H 0.628020 -0.878489 0.208791
  H 0.629471 0.746671 -0.443263
  H 3.964922 1.380664 1.121649
  H 3.964099 -0.257904 1.779637
  H 1.905823 0.261687 3.078981
  H 1.907223 1.906387 2.418783
  H 2.337039 -0.702265 -1.696561
  H 4.873735 -0.039287 -0.045284
  H 5.009235 -2.339849 -3.443801
  H 5.008262 -0.726962 -4.092042
  H 6.790304 -0.452340 -1.088417
 23
 47.630375
  C 0.993645 0.139946 0.392305
  C 2.594476 0.049531 0.173874
  C 3.378256 0.528444 1.369939
  C 2.609371 1.024798 2.606139
  H 3.340265 1.323991 3.355381
  C 2.844386 -0.430532 -1.020114
  C 4.188306 -0.381873 -0.901074
  C 5.080267 -0.793157 -1.928493
  C 4.658457 -1.323626 -3.240408
  H 3.583204 -1.371147 -3.349533
  O 6.382418 -0.727694 -1.778037
  H 0.678268 0.522201 1.344678
  H 0.588565 -0.863927 0.251853
  H 0.591621 0.770688 -0.402881
  H 4.020999 1.366967 1.068685
  H 4.019754 -0.286698 1.731638
  H 1.994183 0.247768 3.045335
  H 1.996422 1.891629 2.386631
  H 2.185081 -0.741869 -1.797455
  H 4.720524 -0.038451 -0.041466
  H 5.087332 -2.318368 -3.381066
  H 5.082513 -0.703085 -4.033183
  H 6.689163 -0.380458 -0.922836
 23
 90.727659
  C 0.981801 0.155833 0.429153
  C 2.676703 0.024627 0.117985
  C 3.413234 0.510471 1.328560
  C 2.638248 1.006381 2.555108
  H 3.371465 1.304577 3.301159
  C 2.770560 -0.467533 -1.093741
  C 4.114721 -0.376985 -0.886054
  C 5.054547 -0.777911 -1.893990
  C 4.681353 -1.310269 -3.214898
  H 3.613136 -1.370544 -3.355433
  O 6.351160 -0.697041 -1.702522
  H 0.697562 0.542906 1.392211
  H 0.586086 -0.842060 0.300159
  H 0.589669 0.790317 -0.353805
  H 4.050750 1.353762 1.038289
  H 4.047795 -0.301056 1.704584
  H 2.023342 0.230919 2.996061
  H 2.027878 1.874163 2.334588
  H 2.091351 -0.772179 -1.848916
  H 4.678394 -0.043373 -0.042269
  H 5.127392 -2.299834 -3.344827
  H 5.121957 -0.683608 -3.995001
  H 6.633166 -0.348461 -0.839670
 23
 129.075294
  C 0.903045 0.164839 0.433168
  C 2.828291 -0.013927 0.093270
  C 3.455307 0.518336 1.364640
  C 2.609717 1.024866 2.536398
  H 3.301436 1.355517 3.306295
  C 2.767925 -0.529850 -1.097837
  C 4.177423 -0.390987 -0.876897
  C 5.052293 -0.768502 -1.884390
  C 4.657840 -1.275342 -3.222677
  H 3.587676 -1.306562 -3.357979
  O 6.380880 -0.736417 -1.719241
  H 0.661438 0.543199 1.404763
  H 0.578730 -0.857539 0.311277
  H 0.529446 0.807059 -0.351527
  H 4.079782 1.366122 1.072000
  H 4.091526 -0.275104 1.772410
  H 1.996939 0.247305 2.969880
  H 1.998547 1.874349 2.267006
  H 2.066695 -0.834610 -1.835776
  H 4.794185 -0.101908 -0.032769
  H 5.075840 -2.271410 -3.378892
  H 5.099220 -0.631104 -3.986521
  H 6.695040 -0.406143 -0.862068
 23
 133.937974
  C 0.534109 0.193585 0.440144
  C 3.132822 0.040845 0.183996
  C 3.563434 0.587900 1.458532
  C 2.535882 0.995949 2.516723
  H 3.094912 1.349094 3.382745
  C 2.897504 -0.474681 -0.937669
  C 4.461124 -0.379474 -0.863284
  C 5.152787 -0.791721 -1.949276
  C 4.603966 -1.288359 -3.242723
  H 3.525018 -1.284659 -3.279581
  O 6.500416 -0.829159 -1.953501
  H 0.256599 0.587130 1.386343
  H 0.386867 -0.868180 0.311434
  H 0.343039 0.821142 -0.406658
  H 4.194273 1.456375 1.263250
  H 4.166176 -0.193575 1.931791
  H 1.934132 0.157004 2.842386
  H 1.910928 1.813398 2.182742
  H 2.189532 -0.793321 -1.660153
  H 5.142774 -0.097580 -0.078469
  H 4.969467 -2.299743 -3.417072
  H 4.990871 -0.666134 -4.046957
  H 6.923642 -0.518440 -1.139067
 23
 130.180661
  C 0.292933 0.180929 0.443576
  C 3.375375 0.040954 0.263288
  C 3.713161 0.619191 1.536614
  C 2.513261 0.976839 2.413587
  H 2.884266 1.351449 3.362878
  C 2.976570 -0.459333 -0.784371
  C 4.613918 -0.375681 -0.829191
  C 5.198228 -0.788001 -1.973931
  C 4.541535 -1.246807 -3.231476
  H 3.464198 -1.199732 -3.201258
  O 6.534262 -0.893124 -2.067040
  H -0.035167 0.587237 1.377494
  H 0.217588 -0.881133 0.311883
  H 0.191336 0.804997 -0.420498
  H 4.332401 1.510252 1.389799
  H 4.321533 -0.105829 2.089426
  H 1.898214 0.105225 2.609807
  H 1.907367 1.751563 1.956308
  H 2.247374 -0.790437 -1.472823
  H 5.344340 -0.144391 -0.063626
  H 4.852757 -2.268293 -3.437253
  H 4.900638 -0.632302 -4.054815
  H 7.028107 -0.615392 -1.279751
 23
 127.732689
  C -0.005948 0.154222 0.414575
  C 3.522383 0.023784 0.320998
  C 3.835391 0.630149 1.588726
  C 2.567588 0.997498 2.363577
  H 2.848476 1.392621 3.335921
  C 3.043319 -0.515309 -0.697804
  C 4.693103 -0.388656 -0.795469
  C 5.218621 -0.780646 -1.973938
  C 4.507618 -1.184043 -3.217514
  H 3.431149 -1.097520 -3.155310
  O 6.547197 -0.926460 -2.119078
  H -0.354346 0.573791 1.330775
  H -0.024125 -0.906642 0.300195
  H -0.026068 0.771601 -0.460221
  H 4.439695 1.521399 1.429727
  H 4.445247 -0.054238 2.187021
  H 1.939538 0.125605 2.514005
  H 1.994064 1.753067 1.835632
  H 2.332055 -0.880811 -1.392890
  H 5.447704 -0.211055 -0.033998
  H 4.778589 -2.209996 -3.459114
  H 4.863143 -0.559343 -4.035464
  H 7.078236 -0.683924 -1.344743
 23
 117.392769
  C -0.205114 0.140438 0.408973
  C 3.664306 0.079769 0.519935
  C 3.865534 0.691280 1.781194
  C 2.465266 1.036067 2.329328
  H 2.580920 1.428138 3.335081
  C 3.360975 -0.521530 -0.547213
  C 4.865983 -0.456994 -0.861889
  C 5.278151 -0.839853 -2.090216
  C 4.435559 -1.156683 -3.276939
  H 3.376415 -1.009540 -3.118290
  O 6.579475 -1.021599 -2.351033
  H -0.593538 0.571639 1.306917
  H -0.153850 -0.923506 0.332352
  H -0.132859 0.754254 -0.462039
  H 4.451494 1.608340 1.681459
  H 4.367543 0.017334 2.480727
  H 1.832923 0.153894 2.367928
  H 1.978324 1.787778 1.715208
  H 2.641776 -0.924337 -1.216486
  H 5.647560 -0.333203 -0.123776
  H 4.626331 -2.183311 -3.583287
  H 4.756570 -0.519296 -4.099602
  H 7.177974 -0.801175 -1.619649
