 20
 0.000000
  C 0.971108 0.172362 0.479735
  C 2.426446 0.114681 0.336293
  H 3.046730 0.444574 1.157573
  C 3.017955 -0.347866 -0.815866
  C 4.400361 -0.418130 -0.991224
  C 5.115350 -0.864655 -2.104464
  C 4.648342 -1.390190 -3.414312
  C 3.167455 -1.518280 -3.733570
  H 3.062713 -1.920460 -4.736044
  O 6.430570 -0.845949 -2.058189
  H 0.660985 0.559976 1.444817
  H 0.539771 -0.821197 0.339382
  H 0.539804 0.792936 -0.308835
  H 2.370588 -0.668529 -1.614253
  H 4.998830 -0.080764 -0.151262
  H 5.123638 -2.371358 -3.529006
  H 5.123684 -0.760511 -4.175416
  H 2.672320 -0.551212 -3.710924
  H 2.672342 -2.201593 -3.048804
  H 6.808469 -0.511448 -1.222544
 20
 12.647921
  C 1.027898 0.098462 0.294298
  C 2.480426 0.090381 0.276363
  H 3.004951 0.441350 1.152435
  C 3.218169 -0.348438 -0.817202
  C 4.574960 -0.349345 -0.817611
  C 5.047050 -0.814347 -1.978598
  C 4.491235 -1.329877 -3.263859
  C 3.022299 -1.478892 -3.634723
  H 2.988143 -1.883625 -4.643628
  O 6.391398 -0.873535 -2.127605
  H 0.624675 0.472019 1.225602
  H 0.643696 -0.904200 0.106013
  H 0.644648 0.693942 -0.534533
  H 2.641954 -0.694042 -1.679992
  H 5.181830 -0.020086 0.005684
  H 4.971576 -2.308780 -3.381981
  H 4.969441 -0.704516 -4.027446
  H 2.500630 -0.525897 -3.660566
  H 2.501402 -2.185909 -2.994307
  H 6.886484 -0.559555 -1.348421
 20
 41.498388
  C 1.077227 0.019075 0.097769
  C 2.513758 0.067874 0.218505
  H 2.934462 0.436977 1.138385
  C 3.379508 -0.343132 -0.805396
  C 4.735462 -0.292126 -0.677078
  C 4.986513 -0.777199 -1.885961
  C 4.369068 -1.284468 -3.149390
  C 2.902687 -1.429987 -3.511177
  H 2.873695 -1.835667 -4.524543
  O 6.362030 -0.905906 -2.205521
  H 0.572560 0.374073 0.982548
  H 0.752793 -0.995697 -0.126160
  H 0.752311 0.596896 -0.765681
  H 2.878154 -0.692134 -1.676337
  H 5.355895 0.026214 0.117408
  H 4.839551 -2.261139 -3.274342
  H 4.837555 -0.664116 -3.918050
  H 2.378027 -0.482558 -3.541673
  H 2.377293 -2.134951 -2.882232
  H 6.940882 -0.615782 -1.483474
 20
 78.468216
  C 1.098905 -0.014306 0.013487
  C 2.547381 0.052725 0.181133
  H 2.934349 0.429172 1.120352
  C 3.452318 -0.348746 -0.818959
  C 4.807854 -0.266380 -0.611418
  C 4.906674 -0.752226 -1.823642
  C 4.321239 -1.266741 -3.106629
  C 2.842297 -1.414519 -3.474210
  H 2.816979 -1.819835 -4.484525
  O 6.376378 -0.917671 -2.236237
  H 0.559984 0.336333 0.887765
  H 0.788764 -1.037741 -0.220955
  H 0.788699 0.563344 -0.863243
  H 2.923791 -0.694710 -1.681520
  H 5.450087 0.052104 0.185100
  H 4.800364 -2.246497 -3.228513
  H 4.800371 -0.642063 -3.871649
  H 2.311183 -0.463282 -3.510038
  H 2.311223 -2.127252 -2.842376
  H 6.978193 -0.632129 -1.528535
 20
 113.383784
  C 1.100811 -0.019784 -0.003237
  C 2.546693 0.046656 0.166086
  H 2.933051 0.423344 1.107959
  C 3.455032 -0.355219 -0.834587
  C 4.831219 -0.255413 -0.579601
  C 4.799270 -0.740683 -1.794016
  C 4.307618 -1.261935 -3.095592
  C 2.834659 -1.415617 -3.473720
  H 2.813732 -1.817836 -4.479685
  O 6.443258 -0.934656 -2.280141
  H 0.566563 0.330856 0.871002
  H 0.785912 -1.040939 -0.236293
  H 0.787321 0.558388 -0.877091
  H 2.880720 -0.694508 -1.682352
  H 5.475115 0.058186 0.207653
  H 4.805154 -2.232094 -3.204590
  H 4.802270 -0.633072 -3.843953
  H 2.304785 -0.467351 -3.512588
  H 2.306326 -2.131422 -2.846952
  H 7.029726 -0.647370 -1.573016
 20
 126.741038
  C 1.034037 0.137718 0.104159
  C 2.506968 0.121631 0.173469
  H 2.972960 0.456343 1.087135
  C 3.280660 -0.325388 -0.857656
  C 4.727801 -0.526749 -0.582067
  C 4.586051 -0.754860 -1.832721
  C 4.342702 -1.257425 -3.155478
  C 2.917074 -1.599877 -3.578613
  H 2.947781 -1.978921 -4.600972
  O 6.725100 -0.703081 -2.333294
  H 0.612297 0.587141 0.991750
  H 0.629369 -0.874836 0.053644
  H 0.705569 0.635634 -0.799769
  H 2.653931 -0.644993 -1.694007
  H 5.324218 -0.364550 0.292833
  H 4.987424 -2.143203 -3.255915
  H 4.799844 -0.548510 -3.858070
  H 2.277191 -0.714694 -3.583875
  H 2.481617 -2.377080 -2.952322
  H 7.290092 -0.373649 -1.630677
 20
 133.873636
  C 1.024717 0.123958 0.060400
  C 2.495979 0.107985 0.140747
  H 2.951007 0.466130 1.053082
  C 3.272220 -0.366032 -0.870236
  C 4.733235 -0.560672 -0.539575
  C 4.548249 -0.793373 -1.781145
  C 4.292147 -1.241872 -3.123397
  C 2.868380 -1.581834 -3.546827
  H 2.896231 -1.920696 -4.579845
  O 6.970256 -0.702110 -2.364823
  H 0.599146 0.619344 0.920286
  H 0.622516 -0.886447 0.032209
  H 0.691642 0.604696 -0.848813
  H 2.627547 -0.712641 -1.683682
  H 5.323691 -0.375139 0.327800
  H 4.942944 -2.114208 -3.260404
  H 4.722702 -0.493266 -3.801320
  H 2.213926 -0.711587 -3.524972
  H 2.452834 -2.394145 -2.952061
  H 7.565057 -0.359955 -1.684895
 20
 135.761357
  C 0.979471 0.156646 0.084576
  C 2.454361 0.100663 0.151258
  H 2.923379 0.440085 1.064684
  C 3.208096 -0.377936 -0.876793
  C 4.699529 -0.614206 -0.527094
  C 4.462009 -0.788239 -1.767180
  C 4.272241 -1.232600 -3.120524
  C 2.867049 -1.603478 -3.564342
  H 2.917207 -1.942986 -4.593670
  O 7.245463 -0.664829 -2.430748
  H 0.573262 0.656359 0.956636
  H 0.549758 -0.854698 0.055781
  H 0.646677 0.654466 -0.823812
  H 2.542962 -0.714343 -1.684959
  H 5.288521 -0.460160 0.343827
  H 4.942752 -2.091208 -3.230968
  H 4.694258 -0.464541 -3.775032
  H 2.195340 -0.747100 -3.554334
  H 2.463908 -2.424532 -2.976646
  H 7.863134 -0.342606 -1.780175
 20
 136.710024
  C 0.943151 0.187613 0.095597
  C 2.415380 0.090516 0.157808
  H 2.894009 0.402756 1.077683
  C 3.152257 -0.386225 -0.881200
  C 4.652986 -0.687194 -0.512075
  C 4.399241 -0.772624 -1.750965
  C 4.237550 -1.225479 -3.104542
  C 2.843051 -1.627989 -3.560578
  H 2.920306 -1.967284 -4.593623
  O 7.538818 -0.603135 -2.495189
  H 0.552469 0.692532 0.971708
  H 0.486036 -0.807437 0.049569
  H 0.623050 0.712094 -0.802484
  H 2.475896 -0.701565 -1.688787
  H 5.234352 -0.584492 0.375343
  H 4.934769 -2.063102 -3.219819
  H 4.648868 -0.452553 -3.763589
  H 2.152545 -0.787605 -3.575395
  H 2.455978 -2.468421 -2.987458
  H 8.180745 -0.292282 -1.853593
 20
 111.111000
  C 0.936854 0.156359 0.022983
  C 2.407760 0.068003 0.119923
  H 2.862278 0.378187 1.052635
  C 3.172263 -0.398539 -0.903646
  C 4.684715 -0.700306 -0.490385
  C 4.388627 -0.758218 -1.717864
  C 4.186928 -1.203772 -3.068496
  C 2.777689 -1.594401 -3.488117
  H 2.824377 -1.929534 -4.524354
  O 7.690798 -0.599987 -2.510141
  H 0.522160 0.654095 0.892142
  H 0.487240 -0.841226 -0.039236
  H 0.635030 0.683726 -0.879726
  H 2.518450 -0.713471 -1.729753
  H 5.273616 -0.619844 0.394358
  H 4.874752 -2.045740 -3.206370
  H 4.585672 -0.430768 -3.735136
  H 2.093056 -0.749130 -3.480458
  H 2.400361 -2.434690 -2.908324
  H 8.337105 -0.298488 -1.868478
 20
 121.518989
  C 0.748830 0.373306 0.453639
  C 2.196886 0.141097 0.404898
  H 2.786299 0.435809 1.268995
  C 2.799207 -0.410131 -0.671405
  C 4.249507 -0.765366 -0.550460
  C 4.313897 -0.937223 -1.818988
  C 4.442657 -1.296965 -3.160361
  C 3.176620 -1.738169 -3.902603
  H 3.435955 -2.035512 -4.916526
  O 7.645070 -0.672101 -2.842801
  H 0.473501 0.917308 1.354836
  H 0.224200 -0.582293 0.442412
  H 0.379368 0.922302 -0.413861
  H 2.184167 -0.738949 -1.496712
  H 4.792730 -0.607540 0.352728
  H 5.174328 -2.115578 -3.135136
  H 4.907777 -0.469585 -3.711594
  H 2.466083 -0.922253 -3.964373
  H 2.722496 -2.591523 -3.396114
  H 8.408570 -0.323450 -2.376068
