 19
 0.000000
  C 1.018180 0.123283 0.357646
  C 2.486665 0.117662 0.344391
  C 3.224746 0.591098 1.521727
  H 2.552124 0.909613 2.314103
  C 3.128332 -0.342634 -0.800650
  C 4.516899 -0.407051 -0.962252
  C 5.166191 -0.859548 -2.091181
  C 4.563792 -1.354441 -3.325513
  H 3.477157 -1.352281 -3.319936
  H 6.250184 -0.851059 -2.071108
  H 0.611454 0.498704 1.291047
  H 0.635991 -0.883549 0.177060
  H 0.636357 0.725148 -0.469615
  H 3.879329 1.422118 1.256465
  H 3.879561 -0.192003 1.905557
  H 2.490470 -0.668280 -1.611160
  H 5.136445 -0.077101 -0.140272
  H 4.932630 -2.363551 -3.526133
  H 4.932485 -0.763298 -4.167574
 19
 0.197719
  C 1.017991 0.061094 0.371180
  C 2.488525 0.101333 0.349748
  C 3.219185 0.684228 1.483233
  H 2.547011 1.050004 2.251304
  C 3.142025 -0.406381 -0.769345
  C 4.532208 -0.489316 -0.919853
  C 5.164098 -0.933851 -2.056392
  C 4.547892 -1.248783 -3.343645
  H 3.474958 -1.104640 -3.376221
  H 6.235559 -1.079436 -2.025875
  H 0.602306 0.464462 1.288992
  H 0.666712 -0.964014 0.233564
  H 0.614015 0.615927 -0.478884
  H 3.855125 1.504430 1.147949
  H 3.890619 -0.053012 1.925142
  H 2.521672 -0.799647 -1.563459
  H 5.154380 -0.211320 -0.081999
  H 4.798015 -2.275602 -3.621212
  H 5.016798 -0.637422 -4.119042
 19
 0.309395
  C 1.026870 -0.015677 0.394077
  C 2.490963 0.093097 0.340219
  C 3.205759 0.761790 1.437376
  H 2.521460 1.253889 2.121061
  C 3.155952 -0.419999 -0.768276
  C 4.547301 -0.515088 -0.902072
  C 5.172418 -0.947990 -2.045140
  C 4.540417 -1.210132 -3.338652
  H 3.495899 -0.927880 -3.397359
  H 6.236895 -1.141159 -2.038330
  H 0.637081 0.178818 1.388477
  H 0.687051 -0.987697 0.038941
  H 0.587401 0.718966 -0.286487
  H 3.928260 1.483660 1.059607
  H 3.780284 0.025279 2.003840
  H 2.546710 -0.825650 -1.566504
  H 5.164537 -0.273007 -0.048848
  H 4.654643 -2.270129 -3.581423
  H 5.098159 -0.691023 -4.121016
 19
 1.408995
  C 1.047212 -0.111489 0.415974
  C 2.497929 0.094431 0.321669
  C 3.177970 0.866519 1.372477
  H 2.472082 1.446755 1.959262
  C 3.189922 -0.420030 -0.766724
  C 4.578669 -0.589401 -0.857760
  C 5.182349 -0.999410 -2.017916
  C 4.523896 -1.147111 -3.322255
  H 3.559876 -0.659218 -3.406910
  H 6.227437 -1.272895 -2.062881
  H 0.709882 -0.089115 1.449037
  H 0.733393 -1.033157 -0.068707
  H 0.536219 0.706519 -0.100595
  H 3.948484 1.515985 0.962934
  H 3.684339 0.176921 2.053589
  H 2.614341 -0.766206 -1.618864
  H 5.184836 -0.447600 0.025102
  H 4.429471 -2.211142 -3.554499
  H 5.180370 -0.752917 -4.100263
 19
 4.141061
  C 1.074336 -0.223102 0.457305
  C 2.501942 0.085820 0.310684
  C 3.138398 0.975464 1.294726
  H 2.408633 1.632422 1.759554
  C 3.220067 -0.436250 -0.754433
  C 4.593682 -0.703208 -0.815576
  C 5.182052 -1.058675 -1.999762
  C 4.516948 -1.067581 -3.314128
  H 3.691616 -0.370784 -3.414773
  H 6.207383 -1.394893 -2.062978
  H 0.813491 -0.323046 1.509036
  H 0.785636 -1.113765 -0.093520
  H 0.480146 0.612491 0.077038
  H 3.949310 1.552673 0.858393
  H 3.576689 0.368040 2.092451
  H 2.691403 -0.664291 -1.676226
  H 5.179290 -0.697859 0.091656
  H 4.194441 -2.084020 -3.549458
  H 5.247901 -0.818342 -4.085721
 19
 12.415539
  C 1.158555 -0.297693 0.443828
  C 2.513225 0.100512 0.305082
  C 3.061670 1.136787 1.253009
  H 2.267560 1.804498 1.590392
  C 3.297837 -0.446959 -0.693547
  C 4.627991 -0.859749 -0.777040
  C 5.149831 -1.193409 -1.997334
  C 4.466310 -0.977651 -3.298729
  H 3.827036 -0.100888 -3.333728
  H 6.107467 -1.637757 -2.102324
  H 0.913098 -0.374580 1.495331
  H 0.963145 -1.239312 -0.062776
  H 0.506259 0.473633 0.046475
  H 3.878956 1.712239 0.813074
  H 3.463649 0.648636 2.145160
  H 2.832626 -0.544885 -1.684729
  H 5.197617 -1.009186 0.115301
  H 3.981614 -1.882769 -3.656995
  H 5.245571 -0.773509 -4.049520
 19
 26.163688
  C 1.197077 -0.398636 0.463689
  C 2.587399 0.071209 0.329792
  C 3.005632 1.222170 1.155235
  H 2.161580 1.875539 1.356943
  C 3.441306 -0.520796 -0.571597
  C 4.701186 -1.092256 -0.722296
  C 5.145956 -1.294723 -1.996702
  C 4.351458 -0.861520 -3.180778
  H 3.890999 0.124624 -3.148242
  H 6.065479 -1.791808 -2.256316
  H 0.927234 -0.416473 1.517704
  H 1.052581 -1.382566 0.027323
  H 0.511798 0.301105 -0.018845
  H 3.816545 1.779485 0.694720
  H 3.372022 0.852773 2.117017
  H 3.059096 -0.452566 -1.668491
  H 5.267069 -1.420812 0.136437
  H 3.768659 -1.676525 -3.603704
  H 5.085801 -0.658334 -3.979435
 19
 52.431101
  C 1.264534 -0.449805 0.384241
  C 2.667666 0.031008 0.337278
  C 2.954663 1.301928 1.054235
  H 2.094431 1.963850 1.015327
  C 3.599803 -0.604277 -0.393394
  C 4.767566 -1.283657 -0.664886
  C 5.122839 -1.382678 -1.976358
  C 4.225138 -0.753750 -3.000504
  H 3.985283 0.317299 -2.909415
  H 5.970324 -1.930490 -2.345197
  H 0.908436 -0.399760 1.410556
  H 1.173835 -1.469917 0.022413
  H 0.621965 0.197801 -0.211575
  H 3.830502 1.805373 0.655442
  H 3.152897 1.072878 2.102563
  H 3.303273 -0.409734 -1.696065
  H 5.329464 -1.756202 0.126474
  H 3.505346 -1.446874 -3.431751
  H 4.881716 -0.561118 -3.874965
 19
 63.783687
  C 1.294212 -0.521420 0.404568
  C 2.707061 -0.013332 0.353118
  C 2.934067 1.332428 0.987064
  H 2.050241 1.956712 0.886693
  C 3.659951 -0.664855 -0.264866
  C 4.773748 -1.346136 -0.637178
  C 5.104814 -1.398836 -1.976217
  C 4.170929 -0.670621 -2.920084
  H 3.986428 0.436719 -2.783603
  H 5.920941 -1.990577 -2.344779
  H 0.898175 -0.379514 1.407668
  H 1.237306 -1.575655 0.147651
  H 0.665890 0.048026 -0.278986
  H 3.794694 1.841783 0.563516
  H 3.123687 1.184199 2.049584
  H 3.410537 -0.415793 -1.945991
  H 5.346413 -1.878018 0.108192
  H 3.438832 -1.326041 -3.412680
  H 4.792709 -0.399214 -3.797016
 19
 62.975059
  C 1.294075 -0.528497 0.455679
  C 2.706478 -0.010251 0.384462
  C 2.921966 1.350094 0.999196
  H 2.033373 1.965319 0.882010
  C 3.657390 -0.662356 -0.217483
  C 4.741480 -1.352815 -0.640149
  C 5.082420 -1.409756 -1.978297
  C 4.195134 -0.670825 -2.958364
  H 4.075548 0.458984 -2.845265
  H 5.890884 -2.028378 -2.319962
  H 0.904374 -0.375624 1.459797
  H 1.244039 -1.587285 0.216542
  H 0.655737 0.024220 -0.232185
  H 3.779534 1.859088 0.568756
  H 3.107979 1.224886 2.065422
  H 3.387856 -0.380725 -2.140207
  H 5.314903 -1.905744 0.091401
  H 3.488392 -1.323764 -3.498467
  H 4.842565 -0.400179 -3.818759
 19
 61.338589
  C 1.306082 -0.584514 0.519797
  C 2.700330 -0.017529 0.418709
  C 2.870174 1.363336 1.003074
  H 1.988421 1.968034 0.804489
  C 3.669431 -0.659228 -0.155796
  C 4.716007 -1.360720 -0.641087
  C 5.053683 -1.400814 -1.980796
  C 4.216368 -0.638712 -2.982716
  H 4.217659 0.499593 -2.881865
  H 5.861305 -2.027233 -2.312401
  H 0.937827 -0.459369 1.536119
  H 1.286679 -1.641313 0.267817
  H 0.632549 -0.045783 -0.145009
  H 3.751405 1.862384 0.610488
  H 2.983900 1.279130 2.083471
  H 3.342573 -0.330813 -2.305781
  H 5.299205 -1.937510 0.065779
  H 3.544309 -1.284851 -3.582097
  H 4.878761 -0.392171 -3.844910
 19
 60.369861
  C 1.318761 -0.608073 0.559498
  C 2.701426 -0.014734 0.438925
  C 2.844532 1.378639 1.001748
  H 2.015629 2.002117 0.676686
  C 3.683724 -0.652440 -0.112899
  C 4.701028 -1.366901 -0.637839
  C 5.032080 -1.393156 -1.978343
  C 4.222287 -0.614662 -2.987895
  H 4.400705 0.508211 -2.951065
  H 5.839331 -2.022399 -2.306563
  H 0.988792 -0.550880 1.596541
  H 1.303839 -1.647767 0.244996
  H 0.615332 -0.040936 -0.043442
  H 3.784319 1.836790 0.705346
  H 2.818918 1.328994 2.091167
  H 3.332733 -0.249883 -2.393842
  H 5.292344 -1.956657 0.051833
  H 3.518688 -1.255579 -3.565761
  H 4.842202 -0.488767 -3.911807
 19
 60.148115
  C 1.322533 -0.613602 0.562055
  C 2.703979 -0.016529 0.441203
  C 2.841834 1.378721 0.998052
  H 2.031451 2.008558 0.637926
  C 3.690316 -0.655432 -0.103571
  C 4.704464 -1.368269 -0.634268
  C 5.028425 -1.392330 -1.978291
  C 4.218902 -0.604268 -2.982650
  H 4.436441 0.509060 -2.955739
  H 5.837699 -2.018366 -2.310080
  H 0.995289 -0.562814 1.599342
  H 1.309474 -1.652219 0.242783
  H 0.614674 -0.043572 -0.037633
  H 3.795632 1.823746 0.731178
  H 2.775873 1.339248 2.084570
  H 3.335347 -0.226799 -2.391477
  H 5.299614 -1.959590 0.051718
  H 3.500102 -1.242190 -3.550765
  H 4.814620 -0.511435 -3.927070
