 32
 0.000000
  C 0.911306 0.048787 0.267603
  C 2.404677 0.057569 0.083761
  C 3.242209 -0.013474 1.354656
  C 2.524113 -0.087840 2.700365
  C 3.520882 -0.152281 3.851655
  C 2.997348 0.126610 -1.123068
  C 2.353639 0.204742 -2.495904
  C 0.842017 0.216743 -2.714073
  C 0.515041 0.301590 -4.202227
  C 4.456650 0.131839 -1.209923
  C 5.196359 0.195168 -2.317050
  O 6.556457 0.196366 -2.332664
  H 0.605811 -0.013202 1.307116
  H 0.467229 -0.816456 -0.218772
  H 0.467572 0.966559 -0.112261
  H 3.888796 0.870169 1.385982
  H 3.887871 -0.895848 1.287882
  H 1.890403 -0.977028 2.741933
  H 1.891310 0.791927 2.840144
  H 4.155961 -1.032637 3.768307
  H 2.992448 -0.204775 4.801842
  H 4.156872 0.731233 3.866250
  H 2.741228 -0.643560 -3.071442
  H 2.740719 1.113235 -2.971171
  H 0.389601 1.077360 -2.222482
  H 0.390132 -0.694517 -2.323660
  H 0.922472 1.211306 -4.640112
  H -0.563712 0.309546 -4.347402
  H 0.923007 -0.552132 -4.740784
  H 5.001931 0.078729 -0.277840
  H 4.819713 0.252638 -3.325153
  H 6.885709 0.144670 -1.425658
 32
 5.878081
  C 0.892576 0.010721 0.295141
  C 2.346355 0.051202 0.095417
  C 3.239688 -0.032022 1.378114
  C 2.539537 -0.077323 2.725122
  C 3.564281 -0.154742 3.851507
  C 2.952680 0.123809 -1.108533
  C 2.323068 0.204845 -2.493449
  C 0.814926 0.205350 -2.745447
  C 0.547792 0.297238 -4.245906
  C 4.412944 0.143530 -1.194432
  C 5.158678 0.215548 -2.302693
  O 6.517035 0.220722 -2.307885
  H 0.576362 -0.008546 1.336624
  H 0.387904 -0.795937 -0.226910
  H 0.705337 0.973135 -0.152350
  H 3.905275 0.831913 1.391731
  H 3.859750 -0.926978 1.306774
  H 1.888518 -0.953055 2.786304
  H 1.931560 0.819887 2.867261
  H 4.176330 -1.049479 3.752906
  H 3.065928 -0.187292 4.817652
  H 4.220179 0.713987 3.835102
  H 2.733768 -0.635961 -3.061852
  H 2.718875 1.117282 -2.952046
  H 0.337060 1.056409 -2.261423
  H 0.361049 -0.710861 -2.372884
  H 0.969701 1.212317 -4.656354
  H -0.522055 0.296872 -4.442047
  H 0.990895 -0.548414 -4.767773
  H 4.961974 0.089156 -0.265680
  H 4.785563 0.274489 -3.310960
  H 6.844526 0.166428 -1.400702
 32
 18.099817
  C 0.911572 -0.004771 0.241264
  C 2.371654 0.050730 0.086300
  C 3.241205 -0.044189 1.379734
  C 2.502208 -0.066957 2.706078
  C 3.490241 -0.161172 3.860405
  C 2.990147 0.123757 -1.104843
  C 2.340220 0.205149 -2.469473
  C 0.831498 0.186438 -2.671144
  C 0.516195 0.284993 -4.159885
  C 4.455106 0.154422 -1.215660
  C 5.189252 0.235679 -2.356519
  O 6.549083 0.247081 -2.390641
  H 0.530193 0.036804 1.239716
  H 0.408062 -0.756423 -0.314787
  H 0.989438 0.944548 -0.249440
  H 3.923418 0.805230 1.403263
  H 3.836803 -0.955327 1.317396
  H 1.832283 -0.926927 2.751079
  H 1.912961 0.844159 2.825694
  H 4.084529 -1.067946 3.783351
  H 2.963004 -0.177482 4.811983
  H 4.166155 0.692670 3.858677
  H 2.745251 -0.626552 -3.051789
  H 2.714563 1.123500 -2.931961
  H 0.353862 1.026475 -2.163079
  H 0.403565 -0.742273 -2.290193
  H 0.911217 1.209799 -4.576435
  H -0.559248 0.269246 -4.321049
  H 0.956483 -0.549184 -4.702638
  H 5.023279 0.097696 -0.300800
  H 4.796971 0.297300 -3.359461
  H 6.892423 0.190143 -1.493992
 32
 32.148444
  C 0.896107 -0.024771 0.277383
  C 2.351924 0.041238 0.085455
  C 3.251409 -0.051328 1.369617
  C 2.530391 -0.057446 2.704444
  C 3.531046 -0.152879 3.848000
  C 2.973620 0.115316 -1.116320
  C 2.327558 0.203981 -2.502598
  C 0.812350 0.176313 -2.717709
  C 0.503713 0.291697 -4.207971
  C 4.421555 0.152338 -1.193520
  C 5.172672 0.241632 -2.297163
  O 6.537896 0.256442 -2.291966
  H 0.522335 0.043692 1.287093
  H 0.357470 -0.741755 -0.299838
  H 1.147546 0.903364 -0.199490
  H 3.942841 0.788323 1.373857
  H 3.830320 -0.968130 1.296293
  H 1.853298 -0.911442 2.763027
  H 1.951134 0.861549 2.823277
  H 4.115711 -1.065846 3.770688
  H 3.013824 -0.157763 4.805646
  H 4.215829 0.694190 3.833185
  H 2.742572 -0.624251 -3.089789
  H 2.697607 1.134339 -2.953925
  H 0.324594 1.003634 -2.200481
  H 0.391131 -0.758557 -2.353474
  H 0.893003 1.224590 -4.611003
  H -0.571083 0.268444 -4.374832
  H 0.954175 -0.530915 -4.759356
  H 4.969155 0.089058 -0.259804
  H 4.808403 0.310148 -3.310633
  H 6.858544 0.192034 -1.376456
 32
 44.566110
  C 0.888940 -0.055462 0.288541
  C 2.343841 0.039008 0.072756
  C 3.235966 -0.047251 1.359195
  C 2.514973 -0.048598 2.700700
  C 3.521106 -0.141467 3.840667
  C 2.983301 0.113098 -1.128641
  C 2.338642 0.204165 -2.509024
  C 0.820941 0.172185 -2.709641
  C 0.494700 0.298815 -4.196208
  C 4.436745 0.149038 -1.199821
  C 5.191133 0.244701 -2.302152
  O 6.552312 0.257011 -2.293621
  H 0.527646 0.015623 1.302665
  H 0.322813 -0.740936 -0.314680
  H 1.276789 0.872305 -0.163972
  H 3.930331 0.792113 1.359732
  H 3.811532 -0.967922 1.284844
  H 1.838645 -0.900580 2.764322
  H 1.937199 0.869584 2.819465
  H 4.104927 -1.055391 3.762213
  H 3.009129 -0.143763 4.800426
  H 4.205845 0.704423 3.820291
  H 2.753747 -0.617803 -3.104704
  H 2.704344 1.136469 -2.959167
  H 0.335533 0.992600 -2.179859
  H 0.408688 -0.768255 -2.349836
  H 0.875458 1.236795 -4.594960
  H -0.581520 0.271979 -4.353059
  H 0.943423 -0.517068 -4.758489
  H 4.981912 0.078085 -0.265552
  H 4.829441 0.321824 -3.311146
  H 6.863269 0.185245 -1.395784
 32
 53.682650
  C 0.878223 -0.091601 0.296372
  C 2.338996 0.034349 0.068014
  C 3.222271 -0.040851 1.359133
  C 2.504846 -0.042602 2.702954
  C 3.517163 -0.125304 3.836480
  C 2.989127 0.106643 -1.133096
  C 2.350923 0.200385 -2.510930
  C 0.833813 0.167265 -2.707036
  C 0.501880 0.311277 -4.190871
  C 4.439175 0.141639 -1.207290
  C 5.181986 0.244995 -2.317481
  O 6.548263 0.254218 -2.324390
  H 0.522913 -0.033224 1.307688
  H 0.298281 -0.719214 -0.339441
  H 1.375698 0.843806 -0.109748
  H 3.914403 0.800789 1.360786
  H 3.799017 -0.959814 1.287411
  H 1.835295 -0.897674 2.774022
  H 1.920879 0.871602 2.823133
  H 4.104659 -1.032872 3.756904
  H 3.011253 -0.128647 4.799093
  H 4.195198 0.724232 3.809765
  H 2.769556 -0.616494 -3.113504
  H 2.716502 1.136567 -2.956528
  H 0.349079 0.980063 -2.164315
  H 0.426305 -0.779183 -2.357953
  H 0.878683 1.254398 -4.578634
  H -0.574021 0.283471 -4.345492
  H 0.950880 -0.495818 -4.763543
  H 4.993499 0.060997 -0.277289
  H 4.806792 0.331972 -3.320929
  H 6.875333 0.170118 -1.409824
 32
 60.001243
  C 0.879497 -0.134987 0.303207
  C 2.339522 0.027628 0.063748
  C 3.220363 -0.035534 1.347891
  C 2.500093 -0.036469 2.694620
  C 3.514196 -0.101012 3.831583
  C 2.996769 0.097485 -1.145911
  C 2.354583 0.195944 -2.521214
  C 0.831821 0.165166 -2.707768
  C 0.486999 0.329127 -4.187551
  C 4.445223 0.130416 -1.209521
  C 5.199088 0.241859 -2.306472
  O 6.579762 0.245878 -2.296313
  H 0.527349 -0.097539 1.319209
  H 0.279163 -0.702784 -0.371797
  H 1.459219 0.821755 -0.049140
  H 3.908361 0.810351 1.343150
  H 3.803616 -0.951531 1.277523
  H 1.838565 -0.899737 2.771423
  H 1.905889 0.871422 2.808156
  H 4.116443 -1.010146 3.757767
  H 3.006652 -0.103686 4.794454
  H 4.185213 0.759237 3.800262
  H 2.772109 -0.620223 -3.133095
  H 2.718311 1.138777 -2.965646
  H 0.351290 0.973169 -2.148022
  H 0.425916 -0.790250 -2.367534
  H 0.861678 1.280149 -4.566689
  H -0.592922 0.302944 -4.333891
  H 0.932741 -0.472421 -4.775640
  H 4.994302 0.037471 -0.271437
  H 4.832063 0.342026 -3.321104
  H 6.887832 0.151723 -1.402432
 32
 64.672892
  C 0.864850 -0.186308 0.303831
  C 2.327106 0.017774 0.065509
  C 3.217085 -0.033759 1.354552
  C 2.513745 -0.032368 2.699777
  C 3.541012 -0.073905 3.827562
  C 2.989170 0.086797 -1.151128
  C 2.351046 0.192380 -2.529661
  C 0.836856 0.166305 -2.722204
  C 0.498508 0.351132 -4.199965
  C 4.430468 0.118882 -1.205263
  C 5.196925 0.239847 -2.302900
  O 6.553748 0.236240 -2.281535
  H 0.508409 -0.171597 1.310796
  H 0.255724 -0.693637 -0.407759
  H 1.509886 0.806915 0.003969
  H 3.898948 0.819259 1.339273
  H 3.808493 -0.947098 1.286187
  H 1.864375 -0.904840 2.790263
  H 1.906681 0.871841 2.811195
  H 4.148983 -0.966914 3.755924
  H 3.044662 -0.075446 4.794373
  H 4.197156 0.789748 3.782900
  H 2.766902 -0.614923 -3.141836
  H 2.713828 1.131430 -2.965387
  H 0.357317 0.965885 -2.153715
  H 0.429892 -0.791098 -2.398208
  H 0.874588 1.303595 -4.563443
  H -0.577376 0.328348 -4.350795
  H 0.944465 -0.440383 -4.795522
  H 4.968539 0.014747 -0.273064
  H 4.843308 0.350222 -3.308328
  H 6.856619 0.127642 -1.368246
 32
 68.155160
  C 0.885131 -0.247099 0.306439
  C 2.335752 0.003666 0.064014
  C 3.225599 -0.032314 1.353275
  C 2.505071 -0.026569 2.691511
  C 3.517890 -0.039674 3.832863
  C 2.997027 0.071512 -1.161773
  C 2.349980 0.187904 -2.530352
  C 0.837014 0.169993 -2.714253
  C 0.489054 0.380474 -4.188683
  C 4.449024 0.102319 -1.224187
  C 5.207372 0.232744 -2.315040
  O 6.586297 0.226652 -2.297610
  H 0.528657 -0.248757 1.319737
  H 0.255950 -0.701367 -0.440283
  H 1.573978 0.791629 0.047422
  H 3.898910 0.831078 1.332829
  H 3.829739 -0.943840 1.296846
  H 1.868863 -0.905615 2.783436
  H 1.882998 0.867056 2.784641
  H 4.139635 -0.922631 3.779019
  H 3.010064 -0.038383 4.792128
  H 4.159929 0.831799 3.787049
  H 2.758100 -0.611782 -3.149342
  H 2.711010 1.124886 -2.960298
  H 0.365436 0.961042 -2.130020
  H 0.429300 -0.791266 -2.403817
  H 0.865806 1.337569 -4.539069
  H -0.587577 0.363561 -4.333329
  H 0.928807 -0.402893 -4.800008
  H 4.991153 -0.012309 -0.303745
  H 4.848867 0.356225 -3.317992
  H 6.895028 0.105705 -1.380795
 32
 70.791984
  C 0.881269 -0.316216 0.314156
  C 2.328530 -0.010601 0.070521
  C 3.234203 -0.031405 1.357533
  C 2.519475 -0.021405 2.705290
  C 3.535270 -0.005301 3.838069
  C 2.992892 0.055683 -1.166834
  C 2.353245 0.183502 -2.537964
  C 0.840129 0.175911 -2.735087
  C 0.506926 0.412521 -4.205726
  C 4.420930 0.086724 -1.218583
  C 5.190353 0.227338 -2.311124
  O 6.555180 0.218484 -2.284359
  H 0.518228 -0.321270 1.320728
  H 0.252670 -0.716425 -0.442825
  H 1.606704 0.779758 0.082546
  H 3.895437 0.837710 1.321561
  H 3.846671 -0.933532 1.304098
  H 1.896957 -0.910676 2.812031
  H 1.884201 0.862821 2.792358
  H 4.173841 -0.884127 3.790230
  H 3.031219 -0.000939 4.799934
  H 4.164948 0.879517 3.778092
  H 2.764105 -0.615174 -3.162663
  H 2.722754 1.125520 -2.960268
  H 0.366098 0.962882 -2.140237
  H 0.423487 -0.792038 -2.445191
  H 0.892068 1.375639 -4.536830
  H -0.570402 0.402929 -4.359511
  H 0.949426 -0.364130 -4.826815
  H 4.960433 -0.038157 -0.287774
  H 4.837747 0.361675 -3.319987
  H 6.851262 0.089696 -1.379954
 32
 72.291345
  C 0.899076 -0.383185 0.293399
  C 2.337358 -0.013586 0.070170
  C 3.238537 -0.026791 1.361265
  C 2.516906 -0.012701 2.697720
  C 3.524889 0.025715 3.839848
  C 3.007668 0.047812 -1.174167
  C 2.355690 0.182856 -2.543185
  C 0.835335 0.184037 -2.723255
  C 0.485532 0.438874 -4.186070
  C 4.447279 0.077798 -1.225347
  C 5.218828 0.221904 -2.314207
  O 6.586040 0.204730 -2.283426
  H 0.512589 -0.382881 1.286228
  H 0.268823 -0.743569 -0.500463
  H 1.654682 0.788627 0.095229
  H 3.889742 0.841812 1.322896
  H 3.854741 -0.920751 1.318452
  H 1.899642 -0.913960 2.807308
  H 1.869203 0.867223 2.770647
  H 4.175536 -0.847993 3.805431
  H 3.013697 0.033157 4.796223
  H 4.144834 0.917544 3.776929
  H 2.757950 -0.617358 -3.176231
  H 2.726405 1.127548 -2.968116
  H 0.370613 0.969179 -2.112455
  H 0.415251 -0.789707 -2.438651
  H 0.871391 1.405915 -4.511327
  H -0.595146 0.435316 -4.326611
  H 0.917938 -0.333863 -4.822018
  H 4.987029 -0.054997 -0.295688
  H 4.868987 0.363564 -3.323407
  H 6.880528 0.067730 -1.374001
 32
 73.032836
  C 0.909807 -0.470678 0.300452
  C 2.330253 -0.025251 0.076349
  C 3.239240 -0.023054 1.361661
  C 2.516732 -0.004438 2.698638
  C 3.523577 0.062986 3.845482
  C 3.001820 0.033010 -1.182550
  C 2.357302 0.178759 -2.537637
  C 0.848457 0.195972 -2.725379
  C 0.511140 0.477651 -4.182046
  C 4.428069 0.065511 -1.236566
  C 5.196672 0.216684 -2.329946
  O 6.567971 0.197430 -2.305408
  H 0.505009 -0.447982 1.297881
  H 0.286725 -0.801463 -0.494779
  H 1.679101 0.787476 0.109218
  H 3.883298 0.858577 1.313534
  H 3.867715 -0.914688 1.326689
  H 1.916909 -0.907260 2.815378
  H 1.856255 0.863302 2.758691
  H 4.188675 -0.800917 3.822856
  H 3.009608 0.073301 4.803548
  H 4.130573 0.963985 3.773918
  H 2.756871 -0.620889 -3.175630
  H 2.736319 1.123297 -2.953762
  H 0.391776 0.967487 -2.109416
  H 0.422609 -0.767244 -2.463529
  H 0.905402 1.442621 -4.487883
  H -0.564894 0.485510 -4.329109
  H 0.939162 -0.284698 -4.825595
  H 4.971487 -0.073227 -0.311041
  H 4.841443 0.363987 -3.335414
  H 6.867480 0.054465 -1.396031
 32
 71.304394
  C 0.969366 -0.625453 0.284845
  C 2.336375 -0.046475 0.076513
  C 3.243669 -0.011250 1.358755
  C 2.511755 0.012789 2.693527
  C 3.505019 0.134879 3.841163
  C 3.020659 0.001921 -1.189560
  C 2.364369 0.171526 -2.545550
  C 0.847929 0.221302 -2.712445
  C 0.494762 0.554325 -4.154397
  C 4.441135 0.035058 -1.237220
  C 5.215634 0.193847 -2.329907
  O 6.583414 0.168111 -2.301592
  H 0.514353 -0.554135 1.255005
  H 0.358719 -0.944701 -0.531244
  H 1.704654 0.780280 0.100924
  H 3.864084 0.881485 1.296895
  H 3.890094 -0.886262 1.339604
  H 1.936004 -0.910044 2.826178
  H 1.821959 0.863062 2.731538
  H 4.194249 -0.705581 3.840154
  H 2.984439 0.148695 4.795119
  H 4.083902 1.052227 3.754352
  H 2.741711 -0.623900 -3.195588
  H 2.754660 1.111903 -2.957160
  H 0.411546 0.986779 -2.060285
  H 0.403446 -0.749916 -2.472357
  H 0.900885 1.521669 -4.436412
  H -0.582682 0.584875 -4.284945
  H 0.900099 -0.194772 -4.827791
  H 4.981853 -0.113695 -0.310292
  H 4.861997 0.350756 -3.335627
  H 6.879649 0.017232 -1.394619
 32
 68.901571
  C 1.036268 -0.786692 0.265931
  C 2.344117 -0.068267 0.073965
  C 3.244450 0.007646 1.357717
  C 2.498304 0.034791 2.681604
  C 3.472244 0.211230 3.842213
  C 3.039292 -0.019386 -1.204635
  C 2.370119 0.169980 -2.546452
  C 0.854040 0.259670 -2.683410
  C 0.479298 0.636395 -4.113738
  C 4.452489 0.010845 -1.251084
  C 5.229644 0.172953 -2.344940
  O 6.597633 0.139657 -2.317654
  H 0.521763 -0.666147 1.205475
  H 0.459208 -1.123472 -0.569277
  H 1.722099 0.769144 0.077811
  H 3.842383 0.916386 1.285919
  H 3.913849 -0.849810 1.361616
  H 1.951668 -0.899121 2.822652
  H 1.782505 0.861103 2.691815
  H 4.188432 -0.607320 3.867594
  H 2.937435 0.227100 4.789639
  H 4.023242 1.145483 3.745228
  H 2.719970 -0.628053 -3.210236
  H 2.773223 1.105303 -2.956808
  H 0.451504 1.016389 -2.005375
  H 0.390389 -0.700220 -2.457375
  H 0.902736 1.601261 -4.382258
  H -0.601049 0.695378 -4.221537
  H 0.853223 -0.106783 -4.813405
  H 4.990961 -0.146041 -0.327305
  H 4.875453 0.336538 -3.343853
  H 6.895754 -0.018000 -1.410310
