 23
 0.000000
  C 0.999629 0.132132 0.379619
  C 2.472645 0.144658 0.412466
  C 3.229589 0.618396 1.591098
  C 2.429161 1.103501 2.796117
  C 3.364744 1.552504 3.914823
  C 3.125684 -0.314525 -0.728309
  C 4.508801 -0.385961 -0.907570
  C 5.100108 -0.848868 -2.061209
  H 4.556063 -1.199164 -2.929971
  O 6.386337 -0.920623 -2.247280
  H 0.534497 0.497546 1.287599
  H 0.645222 -0.882741 0.191413
  H 0.645976 0.734423 -0.458929
  H 3.890494 1.431777 1.270149
  H 3.889519 -0.191383 1.922966
  H 1.791165 0.302940 3.174269
  H 1.792421 1.943870 2.514524
  H 3.999705 0.733528 4.245190
  H 2.790570 1.897189 4.771174
  H 4.001055 2.371353 3.586745
  H 2.501095 -0.644114 -1.547753
  H 5.154283 -0.061591 -0.102095
  H 6.920873 -0.612629 -1.487471
 23
 3.814955
  C 0.984950 0.117897 0.343378
  C 2.440707 0.140322 0.402200
  C 3.189519 0.616868 1.588024
  C 2.404958 1.105587 2.800517
  C 3.360126 1.547852 3.904050
  C 3.142754 -0.308184 -0.710843
  C 4.538921 -0.367772 -0.861620
  C 5.114549 -0.840368 -2.038798
  H 4.494015 -1.174720 -2.862873
  O 6.386489 -0.936228 -2.288285
  H 0.758457 0.505741 1.307000
  H 0.583964 -0.892332 0.184960
  H 0.585445 0.737853 -0.470629
  H 3.852651 1.426630 1.264766
  H 3.850858 -0.192363 1.916092
  H 1.769124 0.308563 3.192410
  H 1.771470 1.953615 2.530805
  H 3.994212 0.724001 4.224337
  H 2.802066 1.896570 4.769328
  H 3.996823 2.362360 3.565596
  H 2.552224 -0.646284 -1.550979
  H 5.186683 -0.043336 -0.057284
  H 6.969190 -0.638624 -1.561443
 23
 13.122161
  C 0.963926 0.108800 0.318863
  C 2.413687 0.135416 0.391400
  C 3.161722 0.612161 1.577866
  C 2.395079 1.105962 2.799906
  C 3.371620 1.540783 3.887792
  C 3.143423 -0.313482 -0.719600
  C 4.533582 -0.367242 -0.858604
  C 5.113418 -0.831792 -2.015578
  H 4.500891 -1.170372 -2.842882
  O 6.387521 -0.919846 -2.253021
  H 0.942038 0.503618 1.299765
  H 0.543856 -0.885654 0.201371
  H 0.546969 0.746314 -0.455137
  H 3.827095 1.416520 1.250553
  H 3.823843 -0.196788 1.900322
  H 1.761037 0.314550 3.206890
  H 1.765674 1.961780 2.544039
  H 4.004109 0.711809 4.198361
  H 2.829485 1.893992 4.761561
  H 4.009190 2.350443 3.538972
  H 2.563221 -0.654890 -1.565702
  H 5.172862 -0.040085 -0.051167
  H 6.964106 -0.615381 -1.518429
 23
 26.053668
  C 0.937874 0.095731 0.285173
  C 2.393284 0.129533 0.377256
  C 3.152472 0.610027 1.573016
  C 2.390639 1.111402 2.813120
  C 3.382071 1.544731 3.897943
  C 3.130442 -0.313507 -0.717980
  C 4.530614 -0.364059 -0.850542
  C 5.117616 -0.828577 -2.006962
  H 4.508713 -1.170393 -2.839540
  O 6.389868 -0.913139 -2.238184
  H 1.079668 0.485580 1.255062
  H 0.510025 -0.893486 0.192397
  H 0.513822 0.747305 -0.466967
  H 3.823410 1.418789 1.238999
  H 3.819939 -0.206955 1.893969
  H 1.756440 0.323640 3.227847
  H 1.761636 1.970193 2.565166
  H 4.013403 0.714769 4.203401
  H 2.849436 1.899823 4.775603
  H 4.019044 2.350985 3.544729
  H 2.553401 -0.658366 -1.570938
  H 5.167225 -0.035315 -0.041260
  H 6.958153 -0.609050 -1.507004
 23
 40.144457
  C 0.911460 0.096279 0.285702
  C 2.386562 0.132594 0.386229
  C 3.149079 0.610352 1.574878
  C 2.390897 1.109188 2.807010
  C 3.379397 1.540995 3.888398
  C 3.141315 -0.312937 -0.714205
  C 4.530499 -0.361989 -0.844391
  C 5.119752 -0.827349 -2.004054
  H 4.512258 -1.169959 -2.837639
  O 6.389790 -0.910560 -2.234210
  H 1.198494 0.476793 1.234820
  H 0.478157 -0.889019 0.212706
  H 0.482158 0.760289 -0.448185
  H 3.817831 1.415165 1.240960
  H 3.813847 -0.204021 1.893644
  H 1.757352 0.324905 3.219436
  H 1.763290 1.964202 2.559269
  H 4.009694 0.711363 4.193800
  H 2.846953 1.896011 4.764608
  H 4.016118 2.346295 3.535161
  H 2.569022 -0.658861 -1.569103
  H 5.165549 -0.033558 -0.036582
  H 6.961714 -0.603902 -1.498258
 23
 53.439814
  C 0.893360 0.093278 0.275740
  C 2.381854 0.129478 0.387797
  C 3.153415 0.610551 1.581299
  C 2.393999 1.112933 2.811319
  C 3.378643 1.543677 3.893306
  C 3.141050 -0.317609 -0.711110
  C 4.526410 -0.360513 -0.840001
  C 5.117345 -0.825207 -2.003570
  H 4.507688 -1.169173 -2.836652
  O 6.384014 -0.906938 -2.234164
  H 1.283057 0.454365 1.189545
  H 0.474542 -0.891801 0.206437
  H 0.472909 0.772091 -0.439978
  H 3.823539 1.413568 1.246295
  H 3.815199 -0.205820 1.900257
  H 1.758309 0.331876 3.220086
  H 1.768905 1.965376 2.560004
  H 4.005752 0.714654 4.201168
  H 2.845048 1.900406 4.766946
  H 4.016798 2.346350 3.541583
  H 2.569606 -0.667381 -1.569581
  H 5.160619 -0.029911 -0.033428
  H 6.958266 -0.600146 -1.499738
 23
 63.512463
  C 0.887113 0.097020 0.268580
  C 2.401655 0.112063 0.402166
  C 3.177180 0.599071 1.589879
  C 2.398521 1.122238 2.796657
  C 3.362834 1.547198 3.897880
  C 3.131749 -0.350137 -0.690324
  C 4.534520 -0.362819 -0.846429
  C 5.107695 -0.811871 -2.006332
  H 4.494015 -1.167212 -2.824479
  O 6.385110 -0.891310 -2.254119
  H 1.367445 0.432392 1.175173
  H 0.481490 -0.897676 0.170801
  H 0.444112 0.822314 -0.392695
  H 3.860045 1.389241 1.263539
  H 3.817148 -0.224027 1.918826
  H 1.740621 0.347540 3.197151
  H 1.787880 1.984817 2.524667
  H 3.973722 0.709144 4.225935
  H 2.812964 1.917819 4.759015
  H 4.021474 2.341530 3.554011
  H 2.558656 -0.706991 -1.532171
  H 5.175144 -0.014663 -0.050166
  H 6.957731 -0.580474 -1.533210
 23
 69.631554
  C 0.893012 0.093055 0.240998
  C 2.428648 0.096688 0.410827
  C 3.213010 0.595693 1.607207
  C 2.407446 1.131590 2.799446
  C 3.345397 1.561952 3.915037
  C 3.124601 -0.373876 -0.683479
  C 4.527945 -0.372906 -0.850515
  C 5.093597 -0.813677 -2.019577
  H 4.478027 -1.171289 -2.836749
  O 6.365544 -0.882642 -2.279805
  H 1.435134 0.389213 1.151777
  H 0.507876 -0.901998 0.087379
  H 0.421990 0.871085 -0.329603
  H 3.904126 1.385437 1.286025
  H 3.841408 -0.235739 1.949273
  H 1.741483 0.361247 3.190042
  H 1.806880 1.991991 2.510493
  H 3.945115 0.728369 4.258350
  H 2.780614 1.938780 4.758389
  H 4.009872 2.349258 3.581920
  H 2.545656 -0.741691 -1.528186
  H 5.166256 -0.018071 -0.055589
  H 6.944367 -0.563276 -1.546232
 23
 73.542793
  C 0.899420 0.090678 0.213501
  C 2.449265 0.083268 0.429006
  C 3.234240 0.589370 1.622085
  C 2.410410 1.136426 2.801075
  C 3.333485 1.576832 3.931975
  C 3.125931 -0.395803 -0.672279
  C 4.527513 -0.382322 -0.854322
  C 5.081097 -0.812459 -2.025198
  H 4.458888 -1.175299 -2.841264
  O 6.357974 -0.870727 -2.301229
  H 1.484029 0.338477 1.136815
  H 0.525465 -0.890289 0.004086
  H 0.424939 0.916854 -0.276144
  H 3.927548 1.376860 1.298410
  H 3.852981 -0.243370 1.974530
  H 1.739326 0.372155 3.187103
  H 1.815073 1.993400 2.493758
  H 3.928307 0.744812 4.292312
  H 2.755681 1.961458 4.764001
  H 4.005148 2.361622 3.602332
  H 2.548621 -0.769170 -1.504434
  H 5.167799 -0.019513 -0.063818
  H 6.927623 -0.554042 -1.584689
 23
 76.247086
  C 0.891028 0.091509 0.187879
  C 2.457143 0.065588 0.441267
  C 3.247951 0.582191 1.635259
  C 2.419965 1.142266 2.803154
  C 3.335828 1.587971 3.932568
  C 3.124116 -0.414127 -0.660576
  C 4.525525 -0.391207 -0.849753
  C 5.076853 -0.812787 -2.023861
  H 4.458677 -1.170884 -2.834606
  O 6.353247 -0.851481 -2.310284
  H 1.515412 0.280981 1.124860
  H 0.513662 -0.878147 -0.080715
  H 0.419722 0.958716 -0.218916
  H 3.939300 1.362615 1.306510
  H 3.859019 -0.250082 1.996610
  H 1.738929 0.380026 3.193904
  H 1.828604 2.000570 2.480795
  H 3.925019 0.756788 4.304362
  H 2.754200 1.983031 4.758407
  H 4.013580 2.366883 3.598516
  H 2.541457 -0.792289 -1.494841
  H 5.167690 -0.024951 -0.059456
  H 6.927768 -0.528106 -1.591152
 23
 78.332105
  C 0.884806 0.097814 0.167447
  C 2.462059 0.059461 0.448160
  C 3.255654 0.584658 1.641827
  C 2.425080 1.138558 2.802982
  C 3.338800 1.595461 3.935234
  C 3.124471 -0.423277 -0.653617
  C 4.526210 -0.399159 -0.846033
  C 5.074812 -0.816121 -2.020227
  H 4.454311 -1.176520 -2.833061
  O 6.351668 -0.847457 -2.311375
  H 1.543866 0.233805 1.112715
  H 0.507705 -0.856904 -0.150072
  H 0.410896 0.994522 -0.161847
  H 3.943741 1.376035 1.308705
  H 3.868571 -0.242412 2.003569
  H 1.750940 0.373579 3.192193
  H 1.825456 1.992908 2.473613
  H 3.933773 0.771815 4.309650
  H 2.755327 1.986595 4.757713
  H 4.009429 2.377045 3.600800
  H 2.545004 -0.804418 -1.476992
  H 5.172871 -0.028476 -0.056137
  H 6.926968 -0.521626 -1.593918
 23
 80.159824
  C 0.885387 0.102936 0.155591
  C 2.468095 0.051353 0.455676
  C 3.263570 0.584045 1.645746
  C 2.428360 1.139459 2.806731
  C 3.337751 1.604039 3.934408
  C 3.126597 -0.428896 -0.650253
  C 4.527902 -0.396346 -0.848486
  C 5.074611 -0.809656 -2.022893
  H 4.455205 -1.176436 -2.830868
  O 6.353576 -0.848552 -2.312964
  H 1.574157 0.186857 1.106007
  H 0.509207 -0.833704 -0.202599
  H 0.405731 1.023546 -0.103924
  H 3.943688 1.374181 1.309011
  H 3.878444 -0.239918 2.008866
  H 1.754308 0.369968 3.200719
  H 1.823836 1.991239 2.471997
  H 3.936450 0.784500 4.312431
  H 2.752239 1.996312 4.755767
  H 4.005265 2.387247 3.596438
  H 2.545542 -0.808401 -1.472420
  H 5.176000 -0.029766 -0.059262
  H 6.929102 -0.530494 -1.594478
 23
 81.676856
  C 0.875264 0.109197 0.136637
  C 2.471328 0.044301 0.460410
  C 3.270495 0.584186 1.648908
  C 2.433293 1.137379 2.807923
  C 3.343347 1.614129 3.935955
  C 3.129794 -0.430650 -0.648504
  C 4.527966 -0.394092 -0.846807
  C 5.078004 -0.802171 -2.023652
  H 4.461600 -1.174887 -2.829375
  O 6.357533 -0.850188 -2.307842
  H 1.594783 0.138454 1.106101
  H 0.505550 -0.802304 -0.260475
  H 0.387128 1.049185 -0.053714
  H 3.941252 1.374381 1.308704
  H 3.892796 -0.238887 2.013484
  H 1.764091 0.364055 3.205458
  H 1.824782 1.980546 2.470755
  H 3.949517 0.799089 4.317523
  H 2.755055 2.006957 4.758646
  H 4.006754 2.402003 3.593980
  H 2.546759 -0.818832 -1.470574
  H 5.170785 -0.026676 -0.063929
  H 6.931006 -0.542434 -1.585725
 23
 82.768141
  C 0.874683 0.125618 0.120781
  C 2.474472 0.037400 0.465898
  C 3.276713 0.584897 1.652277
  C 2.437469 1.135439 2.809707
  C 3.345079 1.621537 3.936804
  C 3.132135 -0.434332 -0.646703
  C 4.527989 -0.397991 -0.845088
  C 5.080172 -0.807236 -2.022334
  H 4.465698 -1.183689 -2.825532
  O 6.359245 -0.849165 -2.307288
  H 1.617199 0.090932 1.104700
  H 0.503539 -0.766298 -0.311835
  H 0.384514 1.076701 0.001322
  H 3.941404 1.378257 1.307240
  H 3.904316 -0.234877 2.016908
  H 1.773170 0.361000 3.209872
  H 1.824686 1.972843 2.470192
  H 3.955805 0.810538 4.319660
  H 2.753908 2.012732 4.758239
  H 4.003426 2.412443 3.591599
  H 2.546898 -0.829815 -1.467293
  H 5.170109 -0.031041 -0.063938
  H 6.932377 -0.534736 -1.586102
