 17
 0.000000
  C 0.990543 0.133001 0.380763
  C 2.462227 0.137020 0.394225
  C 3.184970 0.614919 1.583762
  H 2.517976 0.934364 2.376826
  C 3.125904 -0.319613 -0.740129
  C 4.511736 -0.381413 -0.895641
  C 5.114680 -0.842882 -2.045601
  H 4.563789 -1.192201 -2.910983
  O 6.399009 -0.913880 -2.230467
  H 0.561702 0.505433 1.305504
  H 0.619489 -0.877038 0.198039
  H 0.621254 0.736255 -0.450498
  H 3.837560 1.447878 1.317423
  H 3.836284 -0.171367 1.968727
  H 2.515046 -0.652589 -1.568346
  H 5.144920 -0.053768 -0.082126
  H 6.935545 -0.605743 -1.471896
 17
 9.835184
  C 0.976372 0.136461 0.388947
  C 2.448984 0.145683 0.415946
  C 3.158153 0.627228 1.614790
  H 2.477224 0.942732 2.397846
  C 3.126199 -0.308489 -0.712047
  C 4.500173 -0.362166 -0.847504
  C 5.172823 -0.877039 -2.130428
  H 4.610392 -1.222896 -2.986238
  O 6.443781 -0.944105 -2.306310
  H 0.539261 0.507517 1.310214
  H 0.610051 -0.874564 0.202807
  H 0.612075 0.738239 -0.445443
  H 3.809121 1.464177 1.358136
  H 3.807646 -0.155372 2.009519
  H 2.526639 -0.644483 -1.547684
  H 5.133601 -0.036580 -0.039451
  H 6.981415 -0.635015 -1.546824
 17
 29.690696
  C 0.970569 0.135665 0.387534
  C 2.440621 0.152415 0.432282
  C 3.129712 0.637093 1.638937
  H 2.423236 0.944658 2.403187
  C 3.134209 -0.295562 -0.681033
  C 4.504930 -0.335133 -0.781000
  C 5.218073 -0.908583 -2.209771
  H 4.599105 -1.237498 -3.024363
  O 6.465234 -0.971379 -2.372855
  H 0.525661 0.505029 1.305428
  H 0.610105 -0.876832 0.200004
  H 0.611648 0.737537 -0.448633
  H 3.771002 1.485739 1.400577
  H 3.770105 -0.140946 2.054420
  H 2.550344 -0.634363 -1.523839
  H 5.177399 -0.022961 -0.005327
  H 7.016041 -0.667842 -1.625712
 17
 51.895856
  C 0.950287 0.137045 0.390394
  C 2.423333 0.163635 0.460235
  C 3.093102 0.654211 1.682089
  H 2.373421 0.957241 2.435184
  C 3.150391 -0.285453 -0.655715
  C 4.507649 -0.311210 -0.721581
  C 5.264208 -0.942843 -2.294346
  H 4.595563 -1.259419 -3.076251
  O 6.504118 -1.003253 -2.452877
  H 0.488742 0.503652 1.301414
  H 0.599137 -0.877646 0.197274
  H 0.600954 0.736905 -0.451281
  H 3.734596 1.505330 1.453136
  H 3.733650 -0.119469 2.105963
  H 2.581961 -0.629356 -1.511153
  H 5.218573 -0.012919 0.018796
  H 7.074835 -0.701445 -1.712127
 17
 73.954791
  C 0.940452 0.138681 0.393659
  C 2.410259 0.171425 0.479951
  C 3.066768 0.662754 1.704020
  H 2.338665 0.963406 2.450656
  C 3.140144 -0.268128 -0.611705
  C 4.486676 -0.286679 -0.659744
  C 5.305844 -0.972957 -2.368488
  H 4.625411 -1.285851 -3.139354
  O 6.553031 -1.031430 -2.524692
  H 0.468926 0.503573 1.299995
  H 0.595020 -0.877773 0.197400
  H 0.597377 0.737815 -0.451555
  H 3.707781 1.516052 1.480333
  H 3.706253 -0.109046 2.133276
  H 2.583065 -0.612501 -1.468227
  H 5.210273 0.007184 0.069040
  H 7.126523 -0.730790 -1.789218
 17
 93.462316
  C 0.913067 0.137297 0.386549
  C 2.390221 0.184921 0.514663
  C 3.022832 0.684766 1.761135
  H 2.276880 0.981437 2.495498
  C 3.160395 -0.252128 -0.568050
  C 4.500753 -0.259161 -0.586766
  C 5.346498 -1.005755 -2.446022
  H 4.635807 -1.310964 -3.189444
  O 6.586149 -1.071186 -2.631088
  H 0.415680 0.498880 1.282844
  H 0.579564 -0.882935 0.184300
  H 0.584134 0.735741 -0.465907
  H 3.663520 1.542684 1.550173
  H 3.660144 -0.082705 2.203426
  H 2.620411 -0.600732 -1.434728
  H 5.277937 0.012238 0.084951
  H 7.189201 -0.773623 -1.914353
 17
 110.441224
  C 0.901611 0.144224 0.403754
  C 2.367196 0.198228 0.547562
  C 2.978779 0.697583 1.793121
  H 2.224912 0.989303 2.515561
  C 3.157072 -0.237511 -0.532196
  C 4.490869 -0.238606 -0.535724
  C 5.402591 -1.039259 -2.529639
  H 4.685142 -1.347337 -3.279275
  O 6.636945 -1.104833 -2.715449
  H 0.395456 0.502855 1.293097
  H 0.575498 -0.876063 0.199054
  H 0.579967 0.741204 -0.450344
  H 3.616601 1.557489 1.589520
  H 3.613420 -0.066331 2.241881
  H 2.626474 -0.589519 -1.407436
  H 5.278864 0.030289 0.130258
  H 7.243800 -0.807046 -1.998067
 17
 123.936396
  C 0.877870 0.146295 0.409084
  C 2.347416 0.210203 0.577263
  C 2.944551 0.714363 1.834893
  H 2.178986 1.002963 2.549977
  C 3.154384 -0.220004 -0.489082
  C 4.483014 -0.215089 -0.477204
  C 5.453642 -1.070616 -2.608676
  H 4.737515 -1.378434 -3.357567
  O 6.683613 -1.141268 -2.806527
  H 0.355963 0.502496 1.292683
  H 0.559484 -0.877581 0.199921
  H 0.563794 0.742842 -0.450550
  H 3.581929 1.578898 1.638939
  H 3.578942 -0.047495 2.292139
  H 2.635666 -0.573559 -1.368420
  H 5.281828 0.046760 0.171854
  H 7.297092 -0.846395 -2.094759
 17
 132.255502
  C 0.865528 0.157252 0.436183
  C 2.317235 0.227064 0.618943
  C 2.890683 0.729135 1.872270
  H 2.117514 1.013489 2.577631
  C 3.146195 -0.203668 -0.449463
  C 4.466871 -0.197002 -0.433603
  C 5.517655 -1.105001 -2.693828
  H 4.819790 -1.424661 -3.470132
  O 6.747463 -1.182236 -2.908518
  H 0.331710 0.510120 1.312360
  H 0.556878 -0.866198 0.222763
  H 0.561028 0.751027 -0.425816
  H 3.525241 1.594013 1.682897
  H 3.522492 -0.028627 2.333999
  H 2.634446 -0.560151 -1.335916
  H 5.261209 0.069041 0.225759
  H 7.361829 -0.885297 -2.192402
 17
 136.463241
  C 0.838207 0.165921 0.457601
  C 2.288330 0.242041 0.656244
  C 2.849519 0.746388 1.915610
  H 2.070115 1.029285 2.617803
  C 3.129190 -0.186193 -0.406288
  C 4.448878 -0.178791 -0.388775
  C 5.582566 -1.138319 -2.776675
  H 4.914061 -1.467172 -3.574701
  O 6.817839 -1.222510 -3.009098
  H 0.288984 0.516209 1.327675
  H 0.537811 -0.860899 0.237353
  H 0.541923 0.757637 -0.411441
  H 3.485800 1.613487 1.729991
  H 3.483236 -0.010377 2.381304
  H 2.623672 -0.543813 -1.295675
  H 5.229957 0.091249 0.280926
  H 7.425030 -0.925506 -2.293137
 17
 138.977389
  C 0.815570 0.177069 0.485799
  C 2.256014 0.258004 0.695400
  C 2.801863 0.761584 1.954179
  H 2.018193 1.041570 2.651066
  C 3.108879 -0.168504 -0.364739
  C 4.428613 -0.159915 -0.345292
  C 5.647845 -1.171522 -2.859195
  H 5.003583 -1.510555 -3.680986
  O 6.887152 -1.261799 -3.105058
  H 0.254800 0.523701 1.348545
  H 0.524051 -0.849606 0.259235
  H 0.527480 0.764958 -0.387000
  H 3.437666 1.628077 1.772987
  H 3.435863 0.008248 2.421641
  H 2.608826 -0.528053 -1.258790
  H 5.198472 0.116287 0.339514
  H 7.490374 -0.962710 -2.383121
 17
 140.556373
  C 0.787302 0.186909 0.509514
  C 2.224792 0.272730 0.732947
  C 2.757718 0.778236 1.995508
  H 1.968235 1.057078 2.687980
  C 3.087593 -0.151667 -0.320014
  C 4.408701 -0.141558 -0.296423
  C 5.710531 -1.203472 -2.938298
  H 5.087244 -1.549658 -3.776874
  O 6.953729 -1.297187 -3.195442
  H 0.212727 0.531476 1.365364
  H 0.503448 -0.842020 0.276164
  H 0.507696 0.771367 -0.370271
  H 3.395686 1.645702 1.818028
  H 3.393354 0.026862 2.467069
  H 2.594710 -0.512391 -1.217072
  H 5.168123 0.138559 0.398191
  H 7.549344 -0.996635 -2.472452
 17
 141.582103
  C 0.758929 0.198159 0.537221
  C 2.190121 0.287947 0.771096
  C 2.710539 0.793907 2.034631
  H 1.917059 1.070811 2.722049
  C 3.062766 -0.134604 -0.276784
  C 4.384723 -0.122105 -0.247341
  C 5.772594 -1.234349 -3.015334
  H 5.166622 -1.586562 -3.867924
  O 7.018847 -1.330699 -3.279729
  H 0.174206 0.540098 1.386069
  H 0.482220 -0.830826 0.298091
  H 0.486731 0.778632 -0.346810
  H 3.349244 1.660807 1.861058
  H 3.346935 0.045659 2.508728
  H 2.576595 -0.497066 -1.178003
  H 5.135653 0.161856 0.456895
  H 7.611037 -1.028241 -2.552659
 17
 142.239585
  C 0.725901 0.208453 0.562947
  C 2.154448 0.303284 0.809228
  C 2.663083 0.810557 2.076331
  H 1.864169 1.085342 2.759064
  C 3.037083 -0.116252 -0.231546
  C 4.359209 -0.100376 -0.193901
  C 5.832230 -1.263436 -3.088113
  H 5.238976 -1.619831 -3.950566
  O 7.081081 -1.361740 -3.356882
  H 0.129888 0.547804 1.405659
  H 0.456206 -0.821985 0.317649
  H 0.460585 0.785878 -0.326373
  H 3.303008 1.678461 1.907166
  H 3.301024 0.064718 2.554003
  H 2.559076 -0.480083 -1.136085
  H 5.104109 0.185747 0.516041
  H 7.668164 -1.059113 -2.628934
