 25
 0.000000
  C 0.905405 0.048701 0.272641
  C 2.396477 0.059191 0.086679
  C 3.243488 -0.012094 1.350090
  C 2.524821 -0.087931 2.694001
  H 3.251399 -0.133301 3.498102
  C 2.991779 0.127416 -1.122391
  C 2.351722 0.204896 -2.495498
  C 0.841346 0.217058 -2.710978
  H 0.632113 0.277083 -3.774760
  C 4.453455 0.132513 -1.212651
  C 5.192924 0.194805 -2.316710
  H 6.269956 0.193543 -2.294293
  H 0.616644 -0.010173 1.315942
  H 0.460310 -0.813607 -0.216730
  H 0.460311 0.960588 -0.116616
  H 3.889891 0.870514 1.379297
  H 3.889895 -0.892386 1.279823
  H 1.898620 -0.976946 2.751752
  H 1.898612 0.788941 2.851398
  H 2.744596 -0.643239 -3.066807
  H 2.744592 1.111912 -2.967763
  H 0.379650 1.076274 -2.233507
  H 0.379649 -0.690417 -2.333197
  H 4.995203 0.079948 -0.281066
  H 4.808060 0.251491 -3.321273
 25
 7.171064
  C 0.784233 0.047579 0.292523
  C 2.432695 0.059503 0.081145
  C 3.271529 -0.011654 1.342291
  C 2.543193 -0.087172 2.680534
  H 3.266886 -0.132823 3.489625
  C 3.018697 0.127571 -1.125133
  C 2.372167 0.204826 -2.494263
  C 0.861504 0.216370 -2.698782
  H 0.647382 0.276442 -3.763390
  C 4.480422 0.133045 -1.222082
  C 5.213915 0.195438 -2.327923
  H 6.291637 0.194193 -2.305816
  H 0.507318 -0.011395 1.337605
  H 0.342561 -0.813331 -0.196180
  H 0.342562 0.958002 -0.096227
  H 3.917727 0.870864 1.374688
  H 3.917730 -0.892212 1.275204
  H 1.917164 -0.975776 2.735095
  H 1.917156 0.789650 2.834716
  H 2.762547 -0.643224 -3.067397
  H 2.762545 1.111966 -2.968353
  H 0.402143 1.075236 -2.219438
  H 0.402141 -0.690970 -2.319098
  H 5.026138 0.080619 -0.292958
  H 4.823380 0.251998 -3.330264
 25
 22.212527
  C 0.686970 0.046078 0.319101
  C 2.491620 0.059937 0.073463
  C 3.293778 -0.011358 1.337037
  C 2.522670 -0.085472 2.650411
  H 3.224335 -0.132378 3.481739
  C 3.054192 0.127942 -1.131715
  C 2.390702 0.204619 -2.490586
  C 0.879722 0.214268 -2.661535
  H 0.648039 0.274244 -3.724498
  C 4.518024 0.134327 -1.244836
  C 5.239051 0.197191 -2.358991
  H 6.317336 0.196032 -2.338427
  H 0.446844 -0.013223 1.369983
  H 0.261121 -0.814129 -0.170336
  H 0.261122 0.955886 -0.070457
  H 3.939305 0.871265 1.385584
  H 3.939304 -0.893832 1.285984
  H 1.895297 -0.972491 2.686289
  H 1.895292 0.791873 2.785850
  H 2.773279 -0.643359 -3.069293
  H 2.773282 1.112323 -2.970232
  H 0.429043 1.072321 -2.174496
  H 0.429041 -0.693129 -2.274112
  H 5.073417 0.082194 -0.320889
  H 4.834803 0.253427 -3.355625
 25
 38.657709
  C 0.569259 0.044078 0.354562
  C 2.529470 0.060079 0.070953
  C 3.317540 -0.011876 1.346210
  C 2.530204 -0.085521 2.651293
  H 3.223006 -0.132814 3.489478
  C 3.078241 0.128969 -1.149894
  C 2.408907 0.205573 -2.507486
  C 0.896171 0.214342 -2.662860
  H 0.656842 0.274192 -3.723564
  C 4.543023 0.135516 -1.265879
  C 5.260915 0.198404 -2.380461
  H 6.338451 0.196938 -2.354476
  H 0.363892 -0.015554 1.411295
  H 0.157772 -0.822280 -0.139170
  H 0.157773 0.960480 -0.038570
  H 3.963393 0.871536 1.401940
  H 3.963404 -0.895953 1.302205
  H 1.902951 -0.972743 2.680110
  H 1.902940 0.792826 2.779739
  H 2.788845 -0.642450 -3.088025
  H 2.788844 1.113518 -2.988939
  H 0.449847 1.072444 -2.172100
  H 0.449848 -0.693517 -2.271747
  H 5.098436 0.083319 -0.340815
  H 4.852605 0.254508 -3.374764
 25
 55.143294
  C 0.463946 0.044084 0.354442
  C 2.581756 0.061410 0.047364
  C 3.341693 -0.010642 1.324340
  C 2.528772 -0.083272 2.611420
  H 3.205143 -0.131349 3.463458
  C 3.105456 0.128957 -1.149674
  C 2.422439 0.204729 -2.492519
  C 0.907417 0.211135 -2.606005
  H 0.639350 0.270622 -3.660272
  C 4.570106 0.135703 -1.269206
  C 5.287005 0.198855 -2.388470
  H 6.364834 0.197219 -2.359454
  H 0.283455 -0.015718 1.414207
  H 0.073214 -0.824171 -0.145477
  H 0.073215 0.963070 -0.044624
  H 3.986585 0.872452 1.390492
  H 3.986580 -0.895560 1.290726
  H 1.900807 -0.969950 2.626495
  H 1.900801 0.796075 2.726152
  H 2.792329 -0.643122 -3.079145
  H 2.792330 1.113189 -2.980041
  H 0.474448 1.068678 -2.101951
  H 0.474442 -0.697674 -2.201614
  H 5.124860 0.083483 -0.343734
  H 4.874405 0.254858 -3.380992
 25
 68.471526
  C 0.330017 0.041476 0.400662
  C 2.601167 0.061709 0.042085
  C 3.337701 -0.011277 1.335566
  C 2.537065 -0.084289 2.629413
  H 3.224998 -0.131826 3.471824
  C 3.102759 0.130533 -1.177601
  C 2.433168 0.206701 -2.527477
  C 0.916685 0.212207 -2.625031
  H 0.634020 0.271473 -3.675326
  C 4.581354 0.136382 -1.281247
  C 5.314256 0.199913 -2.407217
  H 6.391899 0.197097 -2.357287
  H 0.247923 -0.018670 1.466531
  H 0.019732 -0.840321 -0.121971
  H 0.019734 0.976473 -0.019450
  H 3.983133 0.872113 1.401915
  H 3.983126 -0.896506 1.302114
  H 1.914272 -0.974675 2.649959
  H 1.914257 0.798137 2.749998
  H 2.805738 -0.641863 -3.110130
  H 2.805738 1.115424 -3.010971
  H 0.494383 1.069642 -2.112557
  H 0.494373 -0.697443 -2.212263
  H 5.113726 0.083497 -0.343967
  H 4.899205 0.255848 -3.398562
 25
 80.974533
  C 0.215762 0.040379 0.420107
  C 2.643096 0.062440 0.029134
  C 3.358075 -0.011377 1.337326
  C 2.524790 -0.083343 2.612726
  H 3.189872 -0.131895 3.473210
  C 3.141535 0.131601 -1.196507
  C 2.457163 0.206866 -2.530362
  C 0.934764 0.209769 -2.581816
  H 0.616487 0.268457 -3.621864
  C 4.615144 0.137984 -1.309606
  C 5.333412 0.201245 -2.430786
  H 6.410494 0.198755 -2.386633
  H 0.170189 -0.019811 1.486724
  H -0.057036 -0.850652 -0.116714
  H -0.057035 0.986149 -0.013065
  H 4.002696 0.872459 1.417487
  H 4.002724 -0.898642 1.317549
  H 1.899813 -0.972965 2.615097
  H 1.899805 0.800372 2.715153
  H 2.818185 -0.642221 -3.119025
  H 2.818187 1.116784 -3.019768
  H 0.527900 1.068602 -2.052152
  H 0.527891 -0.703209 -2.152125
  H 5.150306 0.085146 -0.373159
  H 4.908924 0.256923 -3.417572
 25
 91.617290
  C 0.101819 0.037084 0.478487
  C 2.680773 0.062482 0.028360
  C 3.378956 -0.010615 1.323810
  C 2.520397 -0.081549 2.580886
  H 3.167141 -0.130875 3.455073
  C 3.172039 0.131535 -1.195386
  C 2.473400 0.207162 -2.535664
  C 0.958599 0.209331 -2.574104
  H 0.630944 0.267811 -3.610479
  C 4.648788 0.138460 -1.318085
  C 5.354390 0.201684 -2.438586
  H 6.431430 0.199663 -2.402747
  H 0.078236 -0.023212 1.547008
  H -0.168707 -0.846325 -0.051216
  H -0.168703 0.974476 0.051532
  H 4.023199 0.873152 1.411840
  H 4.023194 -0.898660 1.311861
  H 1.894300 -0.969214 2.569580
  H 1.894299 0.801751 2.669503
  H 2.829414 -0.642084 -3.128656
  H 2.829415 1.117728 -3.029354
  H 0.559264 1.062778 -2.043342
  H 0.559268 -0.698396 -2.142728
  H 5.190665 0.085852 -0.385701
  H 4.922029 0.257146 -3.421559
 25
 99.730997
  C -0.016894 0.036794 0.483653
  C 2.720449 0.063273 0.014358
  C 3.401410 -0.011110 1.332575
  C 2.515498 -0.081078 2.572469
  H 3.142232 -0.131277 3.462027
  C 3.207041 0.132252 -1.208074
  C 2.492344 0.206949 -2.531867
  C 0.971954 0.206582 -2.525362
  H 0.611226 0.264502 -3.551802
  C 4.684503 0.139854 -1.342786
  C 5.381415 0.203602 -2.472582
  H 6.459403 0.202092 -2.445809
  H -0.026607 -0.023346 1.549409
  H -0.267570 -0.853999 -0.055934
  H -0.267567 0.982636 0.047706
  H 4.044532 0.872146 1.434243
  H 4.044520 -0.900173 1.334232
  H 1.888434 -0.967933 2.545603
  H 1.888419 0.803182 2.645539
  H 2.836559 -0.641088 -3.131442
  H 2.836566 1.117062 -3.032241
  H 0.586538 1.063283 -1.978524
  H 0.586527 -0.706210 -2.078363
  H 5.231554 0.087443 -0.413902
  H 4.938527 0.258808 -3.451000
 25
 105.783592
  C -0.134034 0.034216 0.529347
  C 2.756055 0.063590 0.008749
  C 3.417389 -0.010401 1.320047
  C 2.507266 -0.079319 2.541318
  H 3.114143 -0.130215 3.443249
  C 3.238054 0.132541 -1.213214
  C 2.509738 0.207029 -2.533319
  C 0.993957 0.205078 -2.498720
  H 0.612567 0.262494 -3.516259
  C 4.713720 0.140473 -1.353747
  C 5.402927 0.204314 -2.485194
  H 6.480434 0.203144 -2.464435
  H -0.123480 -0.026048 1.597314
  H -0.375482 -0.853007 -0.008971
  H -0.375478 0.976367 0.094258
  H 4.059021 0.872097 1.430398
  H 4.059013 -0.899695 1.330418
  H 1.879232 -0.965132 2.500097
  H 1.879224 0.805512 2.600006
  H 2.845888 -0.641290 -3.138216
  H 2.845889 1.118016 -3.038947
  H 0.620931 1.057564 -1.945227
  H 0.620928 -0.704260 -2.044642
  H 5.263504 0.088077 -0.425102
  H 4.953735 0.259357 -3.460748
 25
 110.176255
  C -0.252869 0.033140 0.548423
  C 2.793481 0.064277 -0.003447
  C 3.436395 -0.010684 1.325043
  C 2.496639 -0.078497 2.526735
  H 3.080635 -0.130292 3.444582
  C 3.271752 0.133183 -1.224602
  C 2.524798 0.206956 -2.532016
  C 1.007039 0.202536 -2.453686
  H 0.593491 0.259311 -3.459850
  C 4.748064 0.141705 -1.375587
  C 5.428449 0.205917 -2.513618
  H 6.506669 0.205250 -2.501754
  H -0.228018 -0.026951 1.613326
  H -0.479424 -0.858355 0.003780
  H -0.479419 0.980249 0.107530
  H 4.076951 0.872122 1.449066
  H 4.076934 -0.901813 1.348963
  H 1.868157 -0.962891 2.468616
  H 1.868146 0.806828 2.568474
  H 2.848675 -0.640651 -3.143420
  H 2.848678 1.117969 -3.044193
  H 0.648956 1.056772 -1.885749
  H 0.648950 -0.710168 -1.985449
  H 5.301983 0.089493 -0.450220
  H 4.969956 0.260712 -3.484708
 25
 113.182024
  C -0.373230 0.031022 0.585970
  C 2.827131 0.064610 -0.009351
  C 3.449053 -0.010315 1.318516
  C 2.484129 -0.076925 2.498894
  H 3.046170 -0.129422 3.429188
  C 3.302386 0.133504 -1.230284
  C 2.539223 0.206809 -2.529421
  C 1.026207 0.200445 -2.416638
  H 0.587790 0.256543 -3.410813
  C 4.776526 0.142467 -1.389104
  C 5.447882 0.206908 -2.531178
  H 6.525732 0.206720 -2.527788
  H -0.333358 -0.029143 1.652193
  H -0.589221 -0.858344 0.040342
  H -0.589216 0.976124 0.143859
  H 4.087158 0.871111 1.453100
  H 4.087146 -0.901269 1.353084
  H 1.855327 -0.960202 2.425352
  H 1.855318 0.809023 2.525182
  H 2.852768 -0.640743 -3.146366
  H 2.852774 1.118398 -3.047116
  H 0.682487 1.051448 -1.840165
  H 0.682481 -0.710008 -1.939555
  H 5.334345 0.090328 -0.465004
  H 4.980911 0.261490 -3.498503
 25
 115.175366
  C -0.495485 0.029513 0.612714
  C 2.860321 0.065107 -0.018146
  C 3.463153 -0.010538 1.322470
  C 2.469620 -0.076004 2.482552
  H 3.008543 -0.129305 3.427076
  C 3.332363 0.133978 -1.238678
  C 2.550298 0.206639 -2.526388
  C 1.037970 0.198040 -2.373989
  H 0.570866 0.253457 -3.356091
  C 4.805618 0.143512 -1.407591
  C 5.467398 0.208291 -2.555668
  H 6.545552 0.208655 -2.562076
  H -0.443415 -0.030511 1.676430
  H -0.699620 -0.862465 0.062439
  H -0.699615 0.977736 0.166279
  H 4.099865 0.871374 1.470034
  H 4.099846 -0.903427 1.369879
  H 1.840913 -0.957878 2.392808
  H 1.840903 0.810373 2.492585
  H 2.852059 -0.640652 -3.149206
  H 2.852059 1.118615 -3.049939
  H 0.708612 1.049822 -1.785576
  H 0.708606 -0.714532 -1.885128
  H 5.368016 0.091550 -0.486660
  H 4.990891 0.262596 -3.518104
 25
 116.379426
  C -0.621829 0.027581 0.646976
  C 2.888952 0.065315 -0.021829
  C 3.470967 -0.010467 1.321219
  C 2.453388 -0.074690 2.459275
  H 2.970411 -0.128624 3.415041
  C 3.358268 0.134194 -1.242503
  C 2.558763 0.206259 -2.519663
  C 1.051722 0.195710 -2.332704
  H 0.560352 0.250390 -3.301746
  C 4.829402 0.144257 -1.420779
  C 5.481260 0.209323 -2.573943
  H 6.559080 0.210241 -2.590222
  H -0.558828 -0.032477 1.711274
  H -0.815760 -0.862947 0.094941
  H -0.815754 0.974559 0.198630
  H 4.104820 0.870060 1.479812
  H 4.104807 -0.903227 1.379744
  H 1.825143 -0.955292 2.354704
  H 1.825131 0.812090 2.454433
  H 2.849456 -0.640817 -3.147607
  H 2.849456 1.118600 -3.048331
  H 0.736495 1.045117 -1.736098
  H 0.736489 -0.715421 -1.835436
  H 5.396744 0.092432 -0.502269
  H 4.995233 0.263375 -3.531913
