 20
 0.000000
  C 0.992835 0.118562 0.345409
  C 2.466405 0.118068 0.345760
  C 3.190943 0.598426 1.539893
  H 2.502848 0.912556 2.320319
  C 3.125251 -0.339890 -0.792795
  C 4.510765 -0.398580 -0.940906
  C 5.184944 -0.853173 -2.075704
  C 4.540609 -1.347395 -3.308699
  H 3.459467 -1.326119 -3.256209
  O 6.493180 -0.868949 -2.116585
  H 0.580261 0.493222 1.276005
  H 0.614961 -0.889116 0.167613
  H 0.615810 0.722814 -0.480769
  H 3.839965 1.437101 1.284884
  H 3.839757 -0.183128 1.936905
  H 2.505444 -0.670195 -1.614302
  H 5.126005 -0.067472 -0.116436
  H 4.882840 -2.362887 -3.508634
  H 4.883245 -0.751397 -4.154758
  H 6.930578 -0.544247 -1.306292
 20
 0.698156
  C 0.991028 0.045184 0.392192
  C 2.462726 0.127156 0.344627
  C 3.198139 0.678269 1.499966
  H 2.524704 0.972836 2.296312
  C 3.105978 -0.323126 -0.801979
  C 4.488355 -0.328303 -0.983659
  C 5.172066 -0.874084 -2.066834
  C 4.560009 -1.287583 -3.340587
  H 3.485444 -1.122406 -3.371502
  O 6.470714 -1.064029 -2.019110
  H 0.586596 0.400679 1.331404
  H 0.663754 -0.984001 0.228500
  H 0.555423 0.627600 -0.423027
  H 3.782245 1.546109 1.201247
  H 3.899865 -0.052205 1.895631
  H 2.475003 -0.700714 -1.594231
  H 5.095156 0.042013 -0.165917
  H 4.782873 -2.341211 -3.526697
  H 5.035415 -0.734360 -4.156521
  H 6.903868 -0.823124 -1.179503
 20
 3.168354
  C 1.008444 -0.006909 0.416763
  C 2.474678 0.129707 0.341344
  C 3.195575 0.750471 1.466295
  H 2.513110 1.036859 2.262241
  C 3.114561 -0.324008 -0.796020
  C 4.507716 -0.300112 -0.991654
  C 5.162509 -0.909617 -2.066009
  C 4.562580 -1.240502 -3.356579
  H 3.518857 -0.983944 -3.415230
  O 6.413902 -1.251081 -1.958619
  H 0.605826 0.363980 1.349743
  H 0.726433 -1.047345 0.293915
  H 0.536140 0.529400 -0.421565
  H 3.721905 1.643517 1.132131
  H 3.924816 0.073357 1.874427
  H 2.486342 -0.741686 -1.576619
  H 5.066748 0.126349 -0.168580
  H 4.707428 -2.294132 -3.570736
  H 5.094830 -0.695618 -4.127217
  H 6.877323 -1.051552 -1.122546
 20
 4.977443
  C 1.007682 -0.046520 0.440678
  C 2.476835 0.143915 0.336622
  C 3.187251 0.839930 1.418529
  H 2.502606 1.164837 2.204080
  C 3.118691 -0.351471 -0.782399
  C 4.504249 -0.292306 -0.999549
  C 5.161001 -0.960747 -2.030423
  C 4.577389 -1.176360 -3.371684
  H 3.551353 -0.836300 -3.425198
  O 6.352782 -1.483642 -1.888900
  H 0.608272 0.350093 1.363818
  H 0.754600 -1.104901 0.372251
  H 0.513277 0.433429 -0.401487
  H 3.705965 1.716150 1.029416
  H 3.937746 0.182561 1.869218
  H 2.521518 -0.857929 -1.524686
  H 5.063067 0.234817 -0.234040
  H 4.650074 -2.229547 -3.660204
  H 5.174941 -0.611535 -4.092254
  H 6.847280 -1.309109 -1.062781
 20
 8.626989
  C 1.020418 -0.068782 0.491855
  C 2.477720 0.158441 0.338822
  C 3.204168 0.953471 1.357882
  H 2.542310 1.282513 2.151910
  C 3.102426 -0.393124 -0.763157
  C 4.463030 -0.314423 -1.018680
  C 5.140763 -1.017580 -2.033302
  C 4.643688 -1.129766 -3.414392
  H 3.665630 -0.685628 -3.541577
  O 6.212865 -1.704682 -1.782459
  H 0.632887 0.367197 1.398926
  H 0.798745 -1.138572 0.512625
  H 0.476896 0.338857 -0.363007
  H 3.683182 1.827766 0.909287
  H 3.987467 0.356083 1.815597
  H 2.490121 -0.938972 -1.462812
  H 5.060227 0.230803 -0.299983
  H 4.628478 -2.168723 -3.738375
  H 5.336123 -0.601862 -4.077616
  H 6.661554 -1.551272 -0.929678
 20
 16.894264
  C 1.012108 -0.062487 0.600663
  C 2.455423 0.162829 0.365147
  C 3.219112 1.014928 1.300256
  H 2.582338 1.405715 2.085526
  C 3.044056 -0.459803 -0.728357
  C 4.378876 -0.374814 -1.059545
  C 5.059872 -1.132969 -2.047326
  C 4.744381 -1.103448 -3.479883
  H 3.795786 -0.617598 -3.663305
  O 6.039304 -1.895447 -1.656441
  H 0.694232 0.307632 1.567818
  H 0.765422 -1.123482 0.517628
  H 0.431718 0.445398 -0.171925
  H 3.668644 1.853989 0.772744
  H 4.032589 0.449607 1.763318
  H 2.413087 -1.074132 -1.351624
  H 5.008952 0.271826 -0.450741
  H 4.754789 -2.103640 -3.916325
  H 5.547106 -0.552282 -3.982328
  H 6.616561 -1.616916 -0.922578
 20
 28.907764
  C 0.998244 -0.039777 0.723030
  C 2.425169 0.171334 0.386354
  C 3.254991 1.052019 1.249417
  H 2.642285 1.564441 1.993159
  C 2.949188 -0.516586 -0.700381
  C 4.260935 -0.443077 -1.121899
  C 4.944085 -1.201947 -2.102032
  C 4.880608 -1.060889 -3.548756
  H 4.016844 -0.492770 -3.859965
  O 5.870378 -2.005731 -1.586587
  H 0.729191 0.417835 1.671263
  H 0.758243 -1.102037 0.755040
  H 0.368234 0.394459 -0.054149
  H 3.772745 1.806564 0.661512
  H 4.008156 0.467719 1.776484
  H 2.277552 -1.173329 -1.242723
  H 4.899499 0.262942 -0.596608
  H 4.880954 -2.031379 -4.042864
  H 5.798454 -0.558271 -3.864405
  H 6.568078 -1.723754 -0.971012
 20
 45.767390
  C 1.007947 -0.046403 0.816708
  C 2.429335 0.156006 0.458914
  C 3.268697 1.027367 1.309738
  H 2.679911 1.471329 2.113905
  C 2.915505 -0.445861 -0.689747
  C 4.213449 -0.346945 -1.153764
  C 4.838164 -1.054634 -2.224573
  C 4.991509 -1.134793 -3.663540
  H 4.277441 -0.501773 -4.181076
  O 5.650781 -1.877651 -1.539400
  H 0.741072 0.450560 1.741807
  H 0.780418 -1.110428 0.901688
  H 0.365830 0.345360 0.017501
  H 3.715032 1.833960 0.735215
  H 4.070726 0.453010 1.766361
  H 2.238970 -1.111966 -1.235763
  H 4.849507 0.390168 -0.668995
  H 4.863456 -2.170305 -3.996246
  H 6.006247 -0.837511 -3.928836
  H 6.478559 -1.685641 -1.083836
 20
 68.347877
  C 1.047180 -0.050900 0.787413
  C 2.479977 0.134332 0.444300
  C 3.309945 0.981572 1.335120
  H 2.710766 1.393136 2.141919
  C 2.963672 -0.474097 -0.669827
  C 4.266335 -0.334961 -1.170844
  C 4.778507 -0.971050 -2.328242
  C 5.010169 -1.147932 -3.748807
  H 4.307533 -0.540813 -4.316746
  O 5.485508 -1.709051 -1.364455
  H 0.783477 0.434530 1.721522
  H 0.805140 -1.109004 0.858883
  H 0.418551 0.367991 -0.002979
  H 3.753668 1.812798 0.795671
  H 4.109991 0.393067 1.790638
  H 2.297333 -1.135735 -1.227806
  H 4.874761 0.458456 -0.739073
  H 4.872461 -2.194058 -4.028077
  H 6.033546 -0.868640 -4.022008
  H 6.293081 -1.591089 -0.830265
 20
 75.256382
  C 1.074847 -0.085394 0.802656
  C 2.515286 0.112268 0.425977
  C 3.358029 0.966609 1.320858
  H 2.757621 1.384853 2.124335
  C 2.985450 -0.497799 -0.668929
  C 4.335037 -0.312815 -1.198907
  C 4.766874 -0.870761 -2.442584
  C 5.067837 -1.142044 -3.820119
  H 4.489196 -0.465821 -4.440646
  O 5.265904 -1.550955 -1.258708
  H 0.818465 0.454773 1.709851
  H 0.864241 -1.149623 0.961505
  H 0.419415 0.265098 -0.002582
  H 3.812587 1.791134 0.776291
  H 4.141878 0.377991 1.787446
  H 2.336045 -1.141249 -1.242249
  H 4.872435 0.514919 -0.746478
  H 4.794694 -2.168154 -4.075961
  H 6.133384 -1.019479 -4.047020
  H 6.024953 -1.528900 -0.629843
 20
 81.663132
  C 1.097353 -0.074495 0.753660
  C 2.548664 0.102225 0.416192
  C 3.385557 0.957414 1.328210
  H 2.774122 1.365180 2.126956
  C 3.033589 -0.502263 -0.669961
  C 4.398410 -0.315845 -1.180428
  C 4.776147 -0.825759 -2.446888
  C 5.050169 -1.133013 -3.821248
  H 4.413843 -0.511380 -4.448306
  O 5.316483 -1.472667 -1.265456
  H 0.837439 0.437726 1.682271
  H 0.855850 -1.128300 0.870257
  H 0.475284 0.318250 -0.040266
  H 3.822606 1.796856 0.793325
  H 4.178281 0.379504 1.797459
  H 2.392421 -1.126451 -1.267313
  H 4.913369 0.540764 -0.750640
  H 4.834074 -2.187818 -4.040602
  H 6.100408 -0.950688 -4.082071
  H 5.972199 -1.549972 -0.537038
 20
 92.585830
  C 1.122599 -0.078382 0.814660
  C 2.559970 0.122173 0.423063
  C 3.397526 1.013158 1.286549
  H 2.819986 1.367602 2.135179
  C 3.021225 -0.486204 -0.658313
  C 4.425640 -0.389066 -1.156821
  C 4.793487 -0.820444 -2.599904
  C 5.164682 -1.080829 -3.940848
  H 4.642429 -0.334877 -4.545900
  O 5.167515 -1.553827 -1.097781
  H 0.854403 0.526503 1.680270
  H 0.933792 -1.119129 1.049712
  H 0.466278 0.189387 -0.009767
  H 3.739959 1.885718 0.737460
  H 4.257163 0.478161 1.690581
  H 2.371369 -1.131659 -1.236475
  H 4.953289 0.470729 -0.723638
  H 4.859744 -2.079884 -4.277612
  H 6.240647 -0.994213 -4.111648
  H 5.818293 -1.611945 -0.367213
