13

H 3.58809138618206 -0.5978475436625849 -0.9851419434733829
C 4.65796 -0.605489 -1.000067
C 5.377939 -1.120919 -2.011651
C 6.816377 -1.130621 -2.030829
C 7.53371 -1.642249 -3.036048
C 9.023539 -1.661821 -3.074815
H 5.163075 -0.17026 -0.146547
H 4.873569 -1.555984 -2.865635
H 7.323699 -0.696254 -1.177901
H 7.03427 -2.078154 -3.89256
H 9.458797 -1.209298 -2.185207
H 9.382124 -1.115439 -3.948526
H 9.38227 -2.689848 -3.147665
