16

H 2.5812997186431375 -0.27044293367787603 0.7793152995157409
C 2.2542960267405148 0.3991323688317422 -0.04297644532281192
C 1.2078633792453635 -0.3449089203705827 -0.8577024290802454
C -0.10920679525831722 0.2423383378345183 -0.48559082963629907
O -0.3957361885154918 1.361043811443274 -0.8695871915358254
C -1.0391714416556337 -0.5566713300585107 0.3472286916383038
C -2.3199796773538814 0.15256367847229702 0.6456491444990707
H 1.8611960400664869 1.3166460427218358 0.41965695689333066
H 3.076610687417101 0.6820101002385529 -0.7236398893405007
H 1.3981673278270197 -0.2426353703889395 -1.9432954203122192
H 1.2194508527700174 -1.4312356899420877 -0.6325351211675179
H -0.5572230072580927 -0.7788483186475452 1.3430477846922497
H -1.1849793323755966 -1.530208407611911 -0.1718973964272394
H -2.298545220570392 0.6719146485377389 1.6334127834253451
H -3.135200470198947 -0.615583170760958 0.6673933648312336
H -2.558841899523313 0.9448851533784379 -0.10847930267261682
