 13
 0.000000
  C 0.982900 0.144855 0.413146
  C 2.425010 0.103854 0.311300
  H 3.022814 0.441378 1.151626
  C 3.081397 -0.350875 -0.821269
  C 4.484420 -0.389796 -0.920686
  C 5.117505 -0.839177 -2.039750
  H 4.561635 -1.184807 -2.899405
  H 6.192246 -0.865292 -2.105412
  H 0.629739 0.527640 1.366673
  H 0.558239 -0.851201 0.220263
  H 0.558570 0.731597 -0.414816
  H 2.500849 -0.692486 -1.670157
  H 5.067120 -0.049188 -0.074273
 13
 6.562251
  C 0.956712 0.160274 0.362264
  C 2.467135 0.065316 0.386979
  H 2.866258 0.403820 1.329365
  C 3.091389 -0.386294 -0.750196
  C 4.491214 -0.360327 -0.929988
  C 5.072578 -0.828086 -2.069345
  H 4.488530 -1.179595 -2.906870
  H 6.144570 -0.854428 -2.174359
  H 0.622709 0.551385 1.311677
  H 0.636866 -0.858754 0.143906
  H 0.728450 0.788545 -0.496981
  H 2.507406 -0.801943 -1.561970
  H 5.099731 0.027832 -0.124189
 13
 24.997454
  C 0.901270 0.132964 0.330576
  C 2.534164 0.102129 0.420506
  H 2.728544 0.499409 1.391474
  C 3.115602 -0.372106 -0.706895
  C 4.527172 -0.393675 -0.930882
  C 5.051840 -0.824473 -2.103623
  H 4.464458 -1.172996 -2.932168
  H 6.120706 -0.878554 -2.235650
  H 0.604103 0.540986 1.272378
  H 0.713940 -0.920569 0.174108
  H 0.750874 0.782915 -0.521465
  H 2.510488 -0.725816 -1.521707
  H 5.133190 -0.041956 -0.115118
 13
 49.411584
  C 0.760325 0.134765 0.312968
  C 2.618447 0.096347 0.435098
  H 2.714351 0.484822 1.418994
  C 3.154056 -0.329359 -0.673057
  C 4.574378 -0.371932 -0.962993
  C 5.066274 -0.844529 -2.125403
  H 4.445097 -1.199962 -2.929300
  H 6.137595 -0.922086 -2.256153
  H 0.568317 0.512283 1.286063
  H 0.661088 -0.932812 0.182788
  H 0.677821 0.818280 -0.515065
  H 2.549214 -0.700449 -1.484578
  H 5.209014 -0.016402 -0.166180
 13
 67.815167
  C 0.668457 0.106937 0.299466
  C 2.742513 0.150176 0.491001
  H 2.661170 0.524631 1.479228
  C 3.214158 -0.285100 -0.595343
  C 4.639844 -0.401850 -0.984091
  C 5.049635 -0.879864 -2.140107
  H 4.400207 -1.218814 -2.923063
  H 6.100146 -0.947472 -2.348414
  H 0.438524 0.480201 1.267893
  H 0.633936 -0.956740 0.142462
  H 0.671993 0.800791 -0.525040
  H 2.557546 -0.602128 -1.398365
  H 5.322897 -0.040361 -0.239273
 13
 80.530664
  C 0.501296 0.116850 0.308912
  C 2.857608 0.163738 0.531147
  H 2.677668 0.512267 1.504449
  C 3.316780 -0.273863 -0.565694
  C 4.717832 -0.386517 -1.011614
  C 5.072722 -0.880246 -2.180809
  H 4.382016 -1.209886 -2.931941
  H 6.117004 -0.992250 -2.427338
  H 0.250727 0.494884 1.282091
  H 0.496063 -0.942210 0.144416
  H 0.561289 0.803152 -0.517217
  H 2.636876 -0.600827 -1.349153
  H 5.437321 -0.069811 -0.273963
 13
 88.250238
  C 0.336097 0.158184 0.329584
  C 2.952551 0.159756 0.537981
  H 2.649773 0.454947 1.513881
  C 3.404694 -0.315747 -0.543542
  C 4.799300 -0.402310 -1.021591
  C 5.106103 -0.883056 -2.209620
  H 4.376760 -1.237907 -2.918860
  H 6.135351 -0.943412 -2.521609
  H 0.065338 0.534769 1.298105
  H 0.336001 -0.899491 0.155006
  H 0.474527 0.841777 -0.487796
  H 2.725523 -0.699558 -1.303036
  H 5.545185 -0.037256 -0.334499
 13
 93.780885
  C 0.123348 0.154259 0.366423
  C 3.021674 0.166880 0.522781
  H 2.806876 0.533438 1.507946
  C 3.478434 -0.288981 -0.571753
  C 4.859646 -0.436920 -1.038607
  C 5.166518 -0.907506 -2.238407
  H 4.441714 -1.223932 -2.966604
  H 6.199895 -0.960467 -2.550375
  H -0.105653 0.547921 1.337912
  H 0.133691 -0.911097 0.212618
  H 0.239642 0.823906 -0.463026
  H 2.781017 -0.641840 -1.339831
  H 5.599886 -0.131611 -0.313541
 13
 97.141863
  C -0.065154 0.155204 0.364122
  C 3.127869 0.155705 0.558917
  H 2.920382 0.526232 1.530315
  C 3.547070 -0.289894 -0.548860
  C 4.923521 -0.431090 -1.059023
  C 5.191200 -0.911332 -2.261977
  H 4.438082 -1.229589 -2.962690
  H 6.211702 -0.998013 -2.595149
  H -0.290709 0.545654 1.336286
  H -0.057261 -0.904780 0.206820
  H 0.075519 0.829099 -0.457269
  H 2.827182 -0.628358 -1.298901
  H 5.693543 -0.109601 -0.376422
 13
 98.760424
  C -0.231018 0.168284 0.394910
  C 3.193363 0.154016 0.560911
  H 2.938507 0.527897 1.517996
  C 3.613795 -0.291391 -0.546321
  C 4.976073 -0.442369 -1.080816
  C 5.222465 -0.922622 -2.290887
  H 4.456401 -1.234591 -2.980209
  H 6.235971 -1.004874 -2.644488
  H -0.486812 0.564955 1.357805
  H -0.228253 -0.892519 0.240169
  H -0.043333 0.836875 -0.420778
  H 2.877823 -0.627933 -1.282594
  H 5.759590 -0.123663 -0.410973
 13
 99.595840
  C -0.384078 0.183662 0.431263
  C 3.275143 0.147584 0.553079
  H 2.978650 0.518627 1.500805
  C 3.697325 -0.291458 -0.551745
  C 5.050757 -0.445408 -1.104611
  C 5.280796 -0.928594 -2.314224
  H 4.504578 -1.246157 -2.989534
  H 6.290521 -1.019420 -2.676955
  H -0.658107 0.579040 1.388427
  H -0.384960 -0.875938 0.274085
  H -0.156987 0.852283 -0.374165
  H 2.946069 -0.631356 -1.275310
  H 5.844866 -0.130799 -0.446391
 13
 99.913725
  C -0.563779 0.204598 0.476771
  C 3.324705 0.137746 0.539783
  H 2.999343 0.505114 1.479220
  C 3.751451 -0.299266 -0.565840
  C 5.098860 -0.447939 -1.131595
  C 5.321778 -0.937303 -2.341331
  H 4.541565 -1.264463 -3.006515
  H 6.328666 -1.027109 -2.710223
  H -0.842355 0.596838 1.429686
  H -0.569735 -0.852843 0.316599
  H -0.313969 0.875567 -0.323041
  H 2.994100 -0.647751 -1.275861
  H 5.897576 -0.126840 -0.482764
 13
 99.927016
  C -0.751901 0.231399 0.526935
  C 3.369584 0.123541 0.521830
  H 3.032935 0.487520 1.455899
  C 3.797432 -0.313327 -0.582992
  C 5.141790 -0.452252 -1.157438
  C 5.362491 -0.945777 -2.365628
  H 4.582243 -1.284425 -3.024961
  H 6.367608 -1.027394 -2.740810
  H -1.024337 0.622922 1.485622
  H -0.765211 -0.826883 0.361989
  H -0.497495 0.902573 -0.269184
  H 3.035038 -0.672911 -1.288140
  H 5.940984 -0.119096 -0.514457
 13
 99.929017
  C -0.808059 0.237966 0.540300
  C 3.347845 0.122507 0.521013
  H 3.010790 0.486059 1.456836
  C 3.773884 -0.314124 -0.584860
  C 5.115463 -0.453656 -1.161466
  C 5.333117 -0.946958 -2.370858
  H 4.550369 -1.284130 -3.028607
  H 6.338951 -1.028138 -2.749265
  H -1.078011 0.629168 1.501013
  H -0.822356 -0.819424 0.374307
  H -0.554649 0.909501 -0.256030
  H 3.009608 -0.672715 -1.288300
  H 5.917506 -0.120983 -0.520101
 13
 99.721039
  C -1.136238 0.284265 0.628896
  C 3.506514 0.097489 0.493165
  H 3.144755 0.458956 1.424411
  C 3.931263 -0.338415 -0.612982
  C 5.264874 -0.464261 -1.209971
  C 5.471524 -0.964404 -2.418298
  H 4.682931 -1.318551 -3.060945
  H 6.470289 -1.035349 -2.810241
  H -1.394276 0.669340 1.592236
  H -1.151776 -0.773255 0.455965
  H -0.883041 0.956715 -0.162135
  H 3.156391 -0.711209 -1.300410
  H 6.071250 -0.116246 -0.585710
