 24
 0.000000
  C 0.829620 0.045576 0.328012
  C 2.314973 0.058064 0.106650
  C 3.232036 -0.010369 1.319507
  C 2.587989 -0.088217 2.699051
  H 3.357655 -0.131264 3.461988
  C 2.897597 0.125489 -1.088242
  C 2.344080 0.204327 -2.485423
  C 0.841135 0.219172 -2.748439
  C 0.567221 0.303767 -4.247659
  H 3.980672 0.126759 -1.110724
  H 0.570226 -0.013782 1.379912
  H 0.374718 -0.815985 -0.154716
  H 0.374720 0.955976 -0.054728
  H 3.879359 0.871981 1.303958
  H 3.879362 -0.885370 1.204797
  H 1.968267 -0.979004 2.790592
  H 1.968255 0.786618 2.890227
  H 2.764410 -0.643526 -3.040764
  H 2.764413 1.109276 -2.941858
  H 0.377662 1.079291 -2.266135
  H 0.377662 -0.689744 -2.365957
  H 0.994747 1.211359 -4.669093
  H -0.504601 0.314312 -4.434527
  H 0.994751 -0.550664 -4.768523
 24
 10.457884
  C 0.702831 0.046097 0.318790
  C 2.314325 0.060309 0.066852
  C 3.308620 -0.014088 1.385409
  C 2.651458 -0.091341 2.754432
  H 3.415757 -0.134832 3.525225
  C 2.892471 0.126998 -1.114983
  C 2.347065 0.205908 -2.513433
  C 0.845346 0.220903 -2.779120
  C 0.574200 0.305534 -4.278978
  H 3.976919 0.127970 -1.132197
  H 0.458484 -0.013441 1.373877
  H 0.249460 -0.814464 -0.161633
  H 0.249462 0.955243 -0.061771
  H 3.953264 0.867197 1.368340
  H 3.953268 -0.887858 1.269309
  H 2.030794 -0.981558 2.840107
  H 2.030785 0.783583 2.939713
  H 2.770218 -0.641920 -3.066678
  H 2.770220 1.110595 -2.967789
  H 0.381771 1.080815 -2.296665
  H 0.381771 -0.687827 -2.396464
  H 1.003020 1.213048 -4.699393
  H -0.497126 0.316221 -4.468363
  H 1.003022 -0.548931 -4.798818
 24
 33.586260
  C 0.591065 0.045288 0.333123
  C 2.320318 0.062996 0.019259
  C 3.386770 -0.017780 1.450875
  C 2.685933 -0.093071 2.785111
  H 3.427930 -0.137976 3.580986
  C 2.892097 0.128818 -1.147230
  C 2.357022 0.207825 -2.547426
  C 0.855912 0.222334 -2.804511
  C 0.575225 0.306879 -4.302802
  H 3.979535 0.129323 -1.156162
  H 0.398490 -0.014733 1.396766
  H 0.145371 -0.815416 -0.140907
  H 0.145373 0.953857 -0.041069
  H 4.021818 0.862640 1.426063
  H 4.021824 -0.889821 1.327178
  H 2.061361 -0.981749 2.849997
  H 2.061356 0.782658 2.949558
  H 2.782733 -0.639944 -3.098739
  H 2.782730 1.112225 -2.999860
  H 0.396967 1.081484 -2.316215
  H 0.396968 -0.686294 -2.415967
  H 1.001937 1.214458 -4.725460
  H -0.496899 0.317248 -4.486547
  H 1.001936 -0.547390 -4.824874
 24
 60.810115
  C 0.482344 0.044530 0.346560
  C 2.328888 0.065140 -0.018762
  C 3.461709 -0.022363 1.532066
  C 2.715920 -0.096130 2.839294
  H 3.432623 -0.142374 3.658882
  C 2.910377 0.131718 -1.198655
  C 2.375389 0.210839 -2.600847
  C 0.870458 0.224049 -2.834923
  C 0.563836 0.308284 -4.327747
  H 3.998853 0.131964 -1.203008
  H 0.332041 -0.015764 1.415039
  H 0.047507 -0.822096 -0.129100
  H 0.047510 0.959167 -0.028585
  H 4.090002 0.863567 1.497978
  H 4.090001 -0.898828 1.398534
  H 2.087840 -0.983790 2.884061
  H 2.087835 0.780852 2.983635
  H 2.798798 -0.636991 -3.153785
  H 2.798807 1.115499 -3.054900
  H 0.420605 1.082338 -2.335921
  H 0.420608 -0.684923 -2.435647
  H 0.982929 1.216138 -4.757302
  H -0.511156 0.317655 -4.493803
  H 0.982929 -0.545485 -4.856702
 24
 86.622823
  C 0.421455 0.043917 0.357417
  C 2.347553 0.069628 -0.098309
  C 3.531376 -0.027121 1.616351
  C 2.685016 -0.097605 2.865398
  H 3.337511 -0.146870 3.738504
  C 2.938336 0.134695 -1.251422
  C 2.408231 0.214028 -2.657350
  C 0.893906 0.224230 -2.838134
  C 0.522741 0.307863 -4.320341
  H 4.024985 0.133456 -1.229471
  H 0.386324 -0.016539 1.428825
  H 0.033943 -0.836108 -0.132289
  H 0.033949 0.973450 -0.030177
  H 4.141383 0.873824 1.554821
  H 4.141377 -0.915410 1.453861
  H 2.053849 -0.984693 2.865416
  H 2.053854 0.783837 2.965202
  H 2.825737 -0.633295 -3.212432
  H 2.825749 1.118438 -3.113605
  H 0.469258 1.081228 -2.317187
  H 0.469272 -0.685903 -2.416913
  H 0.922485 1.216359 -4.766521
  H -0.558487 0.314811 -4.443486
  H 0.922490 -0.544686 -4.865894
 24
 113.707989
  C 0.304337 0.044338 0.349957
  C 2.341933 0.071861 -0.137839
  C 3.596407 -0.032025 1.703297
  C 2.743242 -0.100601 2.918537
  H 3.382338 -0.150498 3.802847
  C 2.938993 0.136656 -1.286114
  C 2.412953 0.216091 -2.693860
  C 0.901287 0.225901 -2.867718
  C 0.523018 0.309067 -4.341607
  H 4.028020 0.135080 -1.258180
  H 0.289939 -0.016194 1.422694
  H -0.069464 -0.833210 -0.140934
  H -0.069460 0.971543 -0.039093
  H 4.193687 0.863185 1.633519
  H 4.193696 -0.913703 1.533252
  H 2.113392 -0.986055 2.906799
  H 2.113388 0.780546 3.006481
  H 2.830492 -0.632394 -3.248937
  H 2.830491 1.121633 -3.149967
  H 0.479827 1.082375 -2.341641
  H 0.479824 -0.684322 -2.441325
  H 0.920062 1.217772 -4.789726
  H -0.557908 0.315621 -4.457768
  H 0.920059 -0.543458 -4.889102
 24
 138.211211
  C 0.204196 0.044703 0.343498
  C 2.346270 0.074398 -0.182817
  C 3.669101 -0.037065 1.792584
  C 2.781500 -0.104817 2.993227
  H 3.399131 -0.155758 3.896062
  C 2.948041 0.139062 -1.328761
  C 2.422208 0.218625 -2.738788
  C 0.907143 0.227558 -2.897075
  C 0.509402 0.310616 -4.369073
  H 4.036289 0.137160 -1.295071
  H 0.220364 -0.015726 1.414398
  H -0.154577 -0.838768 -0.153756
  H -0.154571 0.978510 -0.051208
  H 4.263265 0.867017 1.711656
  H 4.263265 -0.926292 1.610466
  H 2.149604 -0.991442 2.967071
  H 2.149606 0.779110 3.066974
  H 2.837458 -0.629942 -3.295055
  H 2.837462 1.124391 -3.196073
  H 0.492082 1.083126 -2.363705
  H 0.492084 -0.682576 -2.463339
  H 0.900361 1.219883 -4.822404
  H -0.573776 0.316428 -4.472059
  H 0.900362 -0.541890 -4.921819
 24
 159.061430
  C 0.097631 0.045292 0.333051
  C 2.344164 0.076723 -0.224017
  C 3.736988 -0.042369 1.886605
  C 2.832094 -0.108436 3.057364
  H 3.428699 -0.160076 3.972587
  C 2.949724 0.141190 -1.366483
  C 2.427037 0.220849 -2.778209
  C 0.912271 0.229161 -2.925526
  C 0.502663 0.311892 -4.391697
  H 4.038162 0.138952 -1.326814
  H 0.137530 -0.015061 1.402610
  H -0.244841 -0.838094 -0.168080
  H -0.244835 0.979451 -0.065517
  H 4.320737 0.860103 1.796927
  H 4.320742 -0.929021 1.695972
  H 2.201740 -0.992779 3.017400
  H 2.201736 0.774785 3.117133
  H 2.840773 -0.628133 -3.334751
  H 2.840774 1.127052 -3.235715
  H 0.502020 1.083511 -2.386843
  H 0.502026 -0.680353 -2.486377
  H 0.889237 1.220985 -4.848006
  H -0.580535 0.317163 -4.485141
  H 0.889234 -0.540095 -4.947373
 24
 175.883230
  C -nan -nan -nan
  C -nan -nan -nan
  C -nan -nan -nan
  C -nan -nan -nan
  H -nan -nan -nan
  C -nan -nan -nan
  C -nan -nan -nan
  C -nan -nan -nan
  C -nan -nan -nan
  H -nan -nan -nan
  H -nan -nan -nan
  H -nan -nan -nan
  H -nan -nan -nan
  H -nan -nan -nan
  H -nan -nan -nan
  H -nan -nan -nan
  H -nan -nan -nan
  H -nan -nan -nan
  H -nan -nan -nan
  H -nan -nan -nan
  H -nan -nan -nan
  H -nan -nan -nan
  H -nan -nan -nan
  H -nan -nan -nan
