17

H 1.4350430943379773 -0.07510153811042224 0.040623759650245096
C 2.50489 -0.083317 0.024496
C 3.218875 -0.596413 -0.9828
C 4.65698 -0.606195 -1.002002
C 5.376658 -1.12183 -2.014278
C 6.815581 -1.130474 -2.031243
C 7.533164 -1.642508 -3.03646
C 9.023331 -1.660943 -3.072641
H 3.005466 0.352134 0.879363
H 2.708041 -1.030045 -1.834081
H 5.161238 -0.171242 -0.14812
H 4.872982 -1.556891 -2.868376
H 7.322441 -0.69604 -1.178375
H 7.034856 -2.078903 -3.893158
H 9.458125 -1.207851 -2.183152
H 9.382428 -1.114149 -3.946041
H 9.382428 -2.688915 -3.143884
