 29
 0.000000
  C 0.966735 0.139821 0.399685
  C 2.442677 0.138078 0.394954
  C 3.231364 0.606486 1.560246
  C 2.459337 1.097314 2.781731
  C 3.416227 1.540382 3.884196
  C 3.058078 -0.326743 -0.762058
  C 4.436094 -0.409947 -0.969873
  C 5.118734 -0.860797 -2.094182
  C 4.625695 -1.383520 -3.397493
  C 3.136951 -1.501621 -3.692355
  H 2.987801 -1.900537 -4.687064
  O 6.441168 -0.855599 -2.081781
  H 0.534869 0.510416 1.321833
  H 0.594886 -0.871725 0.231737
  H 0.594613 0.753687 -0.421539
  H 3.888056 1.417155 1.224960
  H 3.888212 -0.210636 1.879153
  H 1.822227 0.301397 3.171746
  H 1.822162 1.941759 2.512573
  H 4.051979 0.717495 4.203700
  H 2.857232 1.888051 4.749493
  H 4.051902 2.355582 3.545412
  H 2.400784 -0.644455 -1.552849
  H 5.049556 -0.076375 -0.138830
  H 5.084428 -2.370920 -3.521923
  H 5.084652 -0.755937 -4.169774
  H 2.658813 -0.525579 -3.644863
  H 2.658631 -2.174276 -2.983647
  H 6.804278 -0.518741 -1.241015
 29
 1.322262
  C 0.950199 -0.099699 0.503965
  C 2.423278 -0.046922 0.454925
  C 3.223633 0.555619 1.546346
  C 2.466543 1.212975 2.697181
  C 3.444463 1.824049 3.697490
  C 3.034075 -0.577425 -0.675761
  C 4.410999 -0.622875 -0.892056
  C 5.119192 -0.958828 -2.041872
  C 4.653907 -1.170555 -3.439101
  C 3.168096 -1.134807 -3.754789
  H 3.040818 -1.235043 -4.829722
  O 6.435473 -1.010274 -1.972675
  H 0.536679 0.318562 1.412640
  H 0.614132 -1.132123 0.400899
  H 0.531739 0.431976 -0.352226
  H 3.900122 1.300031 1.113076
  H 3.869118 -0.226004 1.962845
  H 1.851269 0.477563 3.217633
  H 1.815608 2.001796 2.316219
  H 4.103777 1.064227 4.110955
  H 2.905159 2.283599 4.521985
  H 4.054855 2.591299 3.227013
  H 2.382361 -1.012155 -1.413828
  H 5.074322 -0.379470 -0.074213
  H 5.073465 -2.130883 -3.758343
  H 5.170737 -0.417274 -4.045199
  H 2.720874 -0.191017 -3.453182
  H 2.643051 -1.961308 -3.286252
  H 6.852938 -1.133056 -1.103119
 29
 11.780421
  C 0.874384 -0.172049 0.568584
  C 2.350911 -0.143110 0.507957
  C 3.179378 0.486224 1.574667
  C 2.438269 1.182934 2.716279
  C 3.436173 1.865694 3.652095
  C 2.950819 -0.698325 -0.619258
  C 4.318358 -0.759699 -0.835752
  C 5.065404 -1.035748 -1.977843
  C 4.668556 -1.158108 -3.409863
  C 3.178964 -1.087880 -3.721999
  H 3.042417 -1.060858 -4.799646
  O 6.376502 -1.093808 -1.809726
  H 0.481629 0.255333 1.483139
  H 0.514164 -1.194796 0.460967
  H 0.463074 0.390387 -0.274377
  H 3.829676 1.226645 1.095416
  H 3.832178 -0.283297 1.998857
  H 1.862146 0.462372 3.298618
  H 1.764967 1.943711 2.319609
  H 4.118309 1.135220 4.087751
  H 2.912802 2.345943 4.474322
  H 4.018574 2.618395 3.129932
  H 2.301151 -1.170635 -1.338471
  H 5.071155 -0.635522 -0.068225
  H 5.079616 -2.110276 -3.759386
  H 5.201354 -0.364296 -3.942776
  H 2.738482 -0.192638 -3.295886
  H 2.658516 -1.965813 -3.341035
  H 6.924227 -1.493032 -1.111564
 29
 26.131064
  C 0.939068 -0.235088 0.599278
  C 2.402256 -0.133182 0.470623
  C 3.227298 0.584496 1.460626
  C 2.501521 1.365923 2.544164
  C 3.489740 2.001053 3.513329
  C 2.999766 -0.744503 -0.632217
  C 4.361460 -0.738822 -0.892204
  C 5.109677 -0.991101 -2.040356
  C 4.753034 -0.954867 -3.474806
  C 3.270754 -0.811085 -3.763510
  H 3.113373 -0.773686 -4.835024
  O 6.393325 -1.135947 -1.796902
  H 0.544991 0.335248 1.429704
  H 0.648908 -1.278609 0.698463
  H 0.460409 0.120998 -0.313257
  H 3.946571 1.229176 0.951505
  H 3.828570 -0.186366 1.959092
  H 1.868106 0.688425 3.123445
  H 1.842562 2.126927 2.120043
  H 4.110013 1.243763 3.984155
  H 2.958487 2.533751 4.298181
  H 4.136902 2.712690 3.003004
  H 2.366475 -1.344303 -1.270569
  H 5.205415 -0.688866 -0.218116
  H 5.117632 -1.898816 -3.895800
  H 5.321165 -0.162814 -3.956367
  H 2.872356 0.101028 -3.325753
  H 2.720810 -1.663250 -3.376557
  H 7.018026 -1.610249 -1.228401
 29
 57.335340
  C 0.765405 -0.315576 0.727212
  C 2.236839 -0.313504 0.577163
  C 3.129384 0.379999 1.543225
  C 2.472754 1.278597 2.603630
  C 3.544763 2.063222 3.369009
  C 2.774277 -0.941844 -0.529806
  C 4.127129 -1.013655 -0.804187
  C 4.961605 -1.100907 -1.921202
  C 4.790841 -0.908700 -3.371156
  C 3.333071 -0.756344 -3.773149
  H 3.254611 -0.538870 -4.832755
  O 6.207514 -1.252733 -1.502018
  H 0.439406 0.162555 1.645343
  H 0.405669 -1.345607 0.758080
  H 0.286890 0.160845 -0.125174
  H 3.759213 1.049269 0.948103
  H 3.838941 -0.312477 2.021130
  H 1.894704 0.666869 3.304651
  H 1.800061 1.985747 2.109933
  H 4.262366 1.378953 3.819080
  H 3.108240 2.686693 4.149856
  H 4.116496 2.685804 2.683296
  H 2.109442 -1.517449 -1.155568
  H 5.156396 -1.070385 -0.254197
  H 5.234132 -1.766684 -3.877305
  H 5.360567 -0.026715 -3.681649
  H 2.872922 0.062900 -3.227035
  H 2.772336 -1.662182 -3.553868
  H 6.911068 -1.683481 -0.994374
 29
 85.134029
  C 0.716299 -0.277541 0.794581
  C 2.181578 -0.271678 0.571262
  C 3.122591 0.439212 1.482739
  C 2.514078 1.301996 2.584815
  C 3.612733 2.013565 3.369449
  C 2.675070 -0.931681 -0.527566
  C 4.011236 -0.981202 -0.889372
  C 4.843900 -1.092635 -1.901365
  C 4.811248 -0.942620 -3.372415
  C 3.387257 -0.789995 -3.893296
  H 3.404096 -0.634097 -4.968315
  O 6.188624 -1.247064 -1.339722
  H 0.423998 0.273696 1.679614
  H 0.357339 -1.302452 0.885048
  H 0.205879 0.153483 -0.066939
  H 3.764991 1.073046 0.863409
  H 3.774913 -0.302887 1.952288
  H 1.937759 0.684651 3.276369
  H 1.847877 2.050992 2.153143
  H 4.292218 1.294995 3.822381
  H 3.180530 2.612642 4.167572
  H 4.185826 2.674848 2.723680
  H 1.982722 -1.548234 -1.096065
  H 5.458936 -1.019407 -0.364494
  H 5.276850 -1.832681 -3.805700
  H 5.418081 -0.082040 -3.666554
  H 2.897869 0.062992 -3.431024
  H 2.804157 -1.683765 -3.689526
  H 6.893224 -1.677021 -0.814452
 29
 77.763201
  C 0.650124 -0.245663 0.861502
  C 2.107708 -0.250656 0.583969
  C 3.091706 0.444189 1.467052
  C 2.536512 1.297714 2.604359
  C 3.674192 1.988054 3.352197
  C 2.555091 -0.903549 -0.537057
  C 3.865682 -0.967229 -0.955418
  C 4.708343 -1.075122 -1.907863
  C 4.831237 -0.972377 -3.364141
  C 3.457029 -0.836556 -4.013467
  H 3.573321 -0.718549 -5.086737
  O 6.195281 -1.239700 -1.201094
  H 0.396059 0.302125 1.760608
  H 0.284487 -1.268020 0.959154
  H 0.113065 0.196398 0.021653
  H 3.714793 1.080757 0.829861
  H 3.754319 -0.309745 1.902779
  H 1.983396 0.676347 3.311114
  H 1.860550 2.058396 2.209926
  H 4.364105 1.256423 3.767413
  H 3.281588 2.580692 4.175179
  H 4.227176 2.652185 2.692300
  H 1.839960 -1.507895 -1.088586
  H 5.605658 -1.014328 -0.398967
  H 5.329440 -1.876934 -3.723843
  H 5.465938 -0.122607 -3.628437
  H 2.931629 0.031901 -3.626662
  H 2.854909 -1.722395 -3.831001
  H 6.973114 -1.528322 -0.669238
 29
 63.982567
  C 0.619658 -0.318743 1.034766
  C 2.040451 -0.293189 0.647169
  C 3.070338 0.430023 1.434698
  C 2.585962 1.313978 2.579291
  C 3.762822 2.050477 3.214741
  C 2.415622 -0.953815 -0.508195
  C 3.681810 -0.992065 -1.036273
  C 4.527155 -1.083497 -1.950424
  C 4.870377 -0.950846 -3.343962
  C 3.601029 -0.747446 -4.174801
  H 3.878190 -0.585851 -5.211880
  O 6.227522 -1.308213 -1.022271
  H 0.424304 0.221216 1.951620
  H 0.283472 -1.347380 1.154193
  H 0.010587 0.110176 0.237162
  H 3.650866 1.043688 0.736414
  H 3.764427 -0.307428 1.848448
  H 2.099141 0.710675 3.346599
  H 1.871050 2.048810 2.208808
  H 4.500520 1.348657 3.596848
  H 3.421620 2.662773 4.045054
  H 4.247379 2.703775 2.493470
  H 1.681913 -1.581418 -1.000123
  H 5.603706 -1.063963 -0.310240
  H 5.380965 -1.865371 -3.658543
  H 5.564612 -0.120424 -3.489736
  H 3.048328 0.119830 -3.825036
  H 2.956508 -1.620782 -4.120579
  H 6.997830 -1.559079 -0.468166
 29
 50.719884
  C 0.482299 -0.252158 1.193702
  C 1.862823 -0.243619 0.684600
  C 2.975389 0.434182 1.388611
  C 2.627871 1.280705 2.608389
  C 3.875339 1.965463 3.157834
  C 2.115882 -0.887095 -0.521658
  C 3.325635 -0.939109 -1.170265
  C 4.203800 -1.011522 -2.028237
  C 4.846961 -0.968659 -3.301027
  C 3.805753 -0.832855 -4.416643
  H 4.318884 -0.773322 -5.372144
  O 6.088041 -1.258876 -0.790483
  H 0.371574 0.282284 2.129643
  H 0.141530 -1.280092 1.330235
  H -0.188643 0.184545 0.451815
  H 3.490177 1.067128 0.655803
  H 3.703128 -0.326110 1.691836
  H 2.199654 0.657125 3.395209
  H 1.894771 2.043148 2.339898
  H 4.624078 1.231480 3.448406
  H 3.627193 2.546191 4.042975
  H 4.312456 2.635267 2.421945
  H 1.326455 -1.480420 -0.969203
  H 5.380223 -1.042227 -0.169015
  H 5.404784 -1.901010 -3.431215
  H 5.573773 -0.154727 -3.336369
  H 3.210863 0.064473 -4.278885
  H 3.143925 -1.693922 -4.438682
  H 6.830889 -1.480891 -0.215339
 29
 43.204310
  C 0.566739 -0.316621 1.382669
  C 1.862284 -0.298995 0.736589
  C 3.044711 0.464849 1.291458
  C 2.805228 1.271097 2.558137
  C 4.089419 1.980810 2.975311
  C 2.010967 -0.912853 -0.496112
  C 3.120596 -0.929545 -1.285794
  C 4.017940 -0.907913 -2.127121
  C 4.880367 -0.884903 -3.241011
  C 4.104182 -0.827090 -4.575992
  H 4.791949 -0.797142 -5.398060
  O 6.107574 -1.124118 -0.639714
  H 0.542660 0.214634 2.327179
  H 0.265322 -1.361038 1.549200
  H -0.194893 0.093776 0.722174
  H 3.462150 1.076803 0.518027
  H 3.818838 -0.310238 1.514444
  H 2.472510 0.637976 3.378819
  H 2.038407 2.016083 2.368364
  H 4.881365 1.259480 3.192177
  H 3.923297 2.563696 3.876735
  H 4.439084 2.650896 2.193003
  H 1.169538 -1.516026 -0.865401
  H 5.344620 -0.931540 -0.086683
  H 5.491130 -1.788147 -3.223424
  H 5.573410 -0.039833 -3.165153
  H 3.457073 0.035126 -4.593743
  H 3.474449 -1.724186 -4.674314
  H 6.818469 -1.333644 -0.023050
 29
 41.930278
  C 0.501898 -0.388915 1.488800
  C 1.766694 -0.300944 0.750844
  C 2.926511 0.464380 1.244138
  C 2.732721 1.320964 2.490193
  C 4.013981 2.077636 2.827264
  C 1.843564 -0.964099 -0.464237
  C 2.905063 -0.936809 -1.326567
  C 3.833044 -0.838104 -2.119566
  C 4.817986 -0.848085 -3.155154
  C 4.196812 -0.641613 -4.545102
  H 4.987164 -0.660128 -5.299763
  O 5.985771 -1.522077 -0.530042
  H 0.514120 0.154952 2.425130
  H 0.256220 -1.435823 1.680565
  H -0.316350 -0.016116 0.868988
  H 3.299048 1.093263 0.426490
  H 3.739813 -0.246850 1.435014
  H 2.462001 0.697595 3.344370
  H 1.930742 2.042625 2.324176
  H 4.834795 1.390783 3.019982
  H 3.870303 2.684542 3.717747
  H 4.302636 2.739097 2.013330
  H 0.987664 -1.537919 -0.797776
  H 5.251792 -1.270119 0.033274
  H 5.302620 -1.838296 -3.125968
  H 5.596267 -0.102602 -2.946420
  H 3.686850 0.323960 -4.593023
  H 3.476093 -1.431179 -4.773062
  H 6.609664 -2.023836 0.007200
 29
 41.831967
  C 0.555327 -0.467260 1.499981
  C 1.824532 -0.357197 0.766758
  C 2.929484 0.519662 1.202024
  C 2.685153 1.430973 2.399396
  C 3.918240 2.282358 2.684486
  C 1.964594 -1.112371 -0.389473
  C 3.057565 -1.082168 -1.223718
  C 3.969553 -1.033079 -2.030785
  C 4.890525 -0.890339 -3.110780
  C 4.167024 -0.343964 -4.353892
  H 4.879791 -0.265264 -5.170772
  O 5.929640 -1.955354 -0.607788
  H 0.511614 0.166790 2.376991
  H 0.387723 -1.505107 1.797046
  H -0.279326 -0.226574 0.837826
  H 3.243956 1.125397 0.342959
  H 3.799239 -0.113229 1.418565
  H 2.455812 0.840331 3.288479
  H 1.839433 2.092216 2.199044
  H 4.780276 1.658923 2.914218
  H 3.739339 2.933530 3.537240
  H 4.165488 2.908188 1.830563
  H 1.151293 -1.760055 -0.693639
  H 5.374378 -1.647565 0.116747
  H 5.300382 -1.874555 -3.349218
  H 5.716031 -0.240876 -2.816839
  H 3.755546 0.638608 -4.149917
  H 3.360350 -1.004860 -4.655480
  H 6.366142 -2.756442 -0.304556
 29
 43.836629
  C 0.583234 -0.502692 1.402617
  C 1.911916 -0.412540 0.772045
  C 2.960596 0.522801 1.240934
  C 2.591536 1.502498 2.352553
  C 3.779112 2.400435 2.690391
  C 2.171834 -1.243950 -0.311190
  C 3.323384 -1.241010 -1.051828
  C 4.259568 -1.236582 -1.872532
  C 4.939357 -0.941982 -3.113980
  C 3.975560 -0.219502 -4.069029
  H 4.487213 -0.026323 -5.012784
  O 5.957572 -2.103354 -0.887952
  H 0.450586 0.198177 2.219114
  H 0.416154 -1.516556 1.774712
  H -0.193143 -0.333018 0.654320
  H 3.326413 1.085035 0.372157
  H 3.819941 -0.069990 1.574852
  H 2.294543 0.961524 3.254101
  H 1.756531 2.131271 2.036784
  H 4.625409 1.810808 3.036533
  H 3.512590 3.101406 3.479194
  H 4.091821 2.975877 1.820491
  H 1.407540 -1.943737 -0.628879
  H 5.645120 -1.853929 -0.006679
  H 5.274466 -1.877187 -3.575266
  H 5.816641 -0.317227 -2.921147
  H 3.656420 0.733375 -3.645833
  H 3.098938 -0.835264 -4.265600
  H 6.243059 -3.029712 -0.840906
