 22
 0.000000
  C 1.018571 0.111450 0.328596
  C 2.491587 0.126037 0.364499
  C 3.244034 0.600822 1.545745
  C 2.433204 1.081029 2.741563
  H 3.106764 1.398524 3.531654
  C 3.148777 -0.332809 -0.777805
  C 4.536806 -0.401311 -0.949226
  C 5.168971 -0.854850 -2.079466
  C 4.547266 -1.346619 -3.305696
  H 3.466203 -1.344387 -3.301377
  H 6.250878 -0.857956 -2.086952
  H 0.561881 0.477610 1.240001
  H 0.663037 -0.903138 0.139407
  H 0.662879 0.713122 -0.509870
  H 3.907466 1.412033 1.223399
  H 3.907854 -0.207543 1.874171
  H 1.802260 0.288527 3.136348
  H 1.801939 1.926238 2.478535
  H 2.523933 -0.661443 -1.595511
  H 5.158381 -0.072128 -0.129316
  H 4.911632 -2.357068 -3.505039
  H 4.912418 -0.754467 -4.148128
 22
 16.394479
  C 0.989701 0.135768 0.389024
  C 2.526570 0.087409 0.268421
  C 3.309542 0.554705 1.430734
  C 2.531129 1.041247 2.642448
  H 3.235005 1.349653 3.409900
  C 2.961169 -0.385333 -0.907863
  C 4.309471 -0.379161 -0.893864
  C 5.098430 -0.809048 -1.965360
  C 4.631126 -1.321351 -3.243037
  H 3.549008 -1.362601 -3.347167
  H 6.172746 -0.759752 -1.842343
  H 0.629772 0.514647 1.331754
  H 0.597351 -0.865562 0.230705
  H 0.597222 0.749104 -0.418050
  H 3.963080 1.372125 1.116674
  H 3.963703 -0.252172 1.769717
  H 1.908965 0.255588 3.061881
  H 1.908525 1.898501 2.402122
  H 2.327283 -0.705731 -1.704521
  H 4.879534 -0.042194 -0.054803
  H 5.059016 -2.318092 -3.406829
  H 5.059736 -0.714390 -4.049985
 22
 55.154313
  C 0.973289 0.146780 0.416312
  C 2.576631 0.061173 0.203234
  C 3.347468 0.537612 1.389821
  C 2.585249 1.033338 2.621997
  H 3.316554 1.331735 3.366917
  C 2.835513 -0.421166 -0.995986
  C 4.142984 -0.367694 -0.866598
  C 5.077788 -0.794516 -1.931496
  C 4.699302 -1.314091 -3.224595
  H 3.619779 -1.377403 -3.381095
  H 6.133060 -0.713503 -1.731805
  H 0.651396 0.528510 1.366161
  H 0.574688 -0.860478 0.272307
  H 0.574608 0.774388 -0.384463
  H 3.993003 1.368130 1.090287
  H 3.991509 -0.270795 1.747202
  H 1.971374 0.257720 3.062951
  H 1.972980 1.899681 2.403624
  H 2.177256 -0.735302 -1.775772
  H 4.698963 -0.029099 -0.024880
  H 5.156561 -2.299537 -3.367571
  H 5.156146 -0.701124 -4.009854
 22
 104.972021
  C 0.952329 0.159570 0.446937
  C 2.652058 0.037503 0.145798
  C 3.380287 0.527189 1.364827
  C 2.612781 1.019428 2.587899
  H 3.352641 1.319778 3.335638
  C 2.752468 -0.454826 -1.075027
  C 4.046347 -0.357830 -0.841054
  C 5.059425 -0.780981 -1.898340
  C 4.725198 -1.299941 -3.191539
  H 3.668066 -1.371837 -3.370840
  H 6.098927 -0.681627 -1.651938
  H 0.658141 0.542898 1.400333
  H 0.563763 -0.846592 0.313986
  H 0.563950 0.794319 -0.345197
  H 4.029376 1.371130 1.071143
  H 4.027940 -0.285272 1.739649
  H 1.994991 0.235955 3.035631
  H 1.995194 1.896394 2.366629
  H 2.091293 -0.758001 -1.826449
  H 4.650143 -0.030551 -0.025955
  H 5.195117 -2.280270 -3.323957
  H 5.194883 -0.683171 -3.964447
 22
 121.590788
  C 0.507476 0.153931 0.442863
  C 3.144610 0.017177 0.240393
  C 3.585217 0.577245 1.503888
  C 2.533940 1.030534 2.528385
  H 3.072652 1.412924 3.399587
  C 2.941907 -0.446370 -0.912144
  C 4.444379 -0.411921 -0.844097
  C 5.129429 -0.815193 -1.940597
  C 4.608168 -1.270808 -3.250379
  H 3.522942 -1.263641 -3.326437
  H 6.208709 -0.813577 -1.867102
  H 0.220812 0.547786 1.400268
  H 0.380450 -0.897972 0.293924
  H 0.392593 0.803997 -0.400892
  H 4.214524 1.443010 1.279115
  H 4.213728 -0.175008 1.989266
  H 1.915743 0.203436 2.865639
  H 1.920201 1.838840 2.146017
  H 2.256446 -0.752737 -1.664612
  H 5.126646 -0.168973 -0.048060
  H 4.966904 -2.281693 -3.448698
  H 5.010165 -0.631825 -4.029048
 22
 108.584119
  C -0.316756 0.000391 0.113571
  C 3.763214 0.176723 0.550630
  C 4.037105 0.715546 1.829477
  C 2.644653 1.025784 2.446980
  H 2.807430 1.400840 3.450936
  C 3.374601 -0.297352 -0.544144
  C 4.816526 -0.430060 -0.894012
  C 5.213983 -0.862136 -2.089655
  C 4.375617 -1.250872 -3.241019
  H 3.314279 -1.083698 -3.089936
  H 6.277624 -0.990498 -2.237202
  H -0.692569 0.327839 1.058898
  H -0.066365 -1.029586 -0.037635
  H -0.026222 0.717749 -0.622861
  H 4.618391 1.637372 1.756190
  H 4.567148 -0.004340 2.455632
  H 2.023760 0.134246 2.504460
  H 2.115293 1.779843 1.871361
  H 2.561411 -0.577019 -1.168568
  H 5.590244 -0.266204 -0.154600
  H 4.540144 -2.304905 -3.455782
  H 4.691626 -0.689620 -4.122963
 22
 102.310982
  C -0.632698 -0.125406 -0.201908
  C 3.913972 0.255955 0.741549
  C 4.202999 0.810832 1.995544
  C 2.781085 1.073570 2.568815
  H 2.906057 1.494459 3.561592
  C 3.626998 -0.255954 -0.390198
  C 4.997303 -0.496000 -0.934318
  C 5.217102 -0.922702 -2.164775
  C 4.218627 -1.222384 -3.215345
  H 3.203439 -0.959693 -2.936193
  H 6.247995 -1.088836 -2.444255
  H -1.128506 0.172991 0.696430
  H -0.456921 -1.163877 -0.380209
  H -0.446412 0.600648 -0.962697
  H 4.753081 1.751787 1.922558
  H 4.746212 0.121768 2.646380
  H 2.212834 0.150975 2.644076
  H 2.235119 1.779163 1.950993
  H 2.752364 -0.527624 -0.943245
  H 5.829542 -0.374030 -0.260048
  H 4.256699 -2.283813 -3.454756
  H 4.478135 -0.681916 -4.124595
