 32
 0.000000
  C 0.972192 0.138431 0.401689
  C 2.450944 0.136374 0.394884
  C 3.234676 0.606430 1.564923
  C 2.457573 1.100485 2.782555
  C 3.407512 1.545250 3.890143
  C 3.062330 -0.327563 -0.761239
  C 4.441563 -0.413690 -0.976592
  C 5.119222 -0.863435 -2.099535
  C 4.625038 -1.385886 -3.404424
  C 3.134029 -1.503589 -3.699425
  C 2.908870 -2.064612 -5.100726
  O 6.444582 -0.858157 -2.086273
  H 0.543139 0.503495 1.328001
  H 0.600276 -0.873667 0.235329
  H 0.587023 0.758580 -0.409595
  H 3.892876 1.416870 1.231215
  H 3.888171 -0.211744 1.888928
  H 1.817317 0.305899 3.170923
  H 1.821895 1.944903 2.508658
  H 4.041142 0.722594 4.215534
  H 2.842240 1.894671 4.751182
  H 4.045753 2.360016 3.554053
  H 2.402472 -0.644538 -1.550917
  H 5.058791 -0.082045 -0.149457
  H 5.080770 -2.374786 -3.530641
  H 5.081259 -0.757719 -4.178277
  H 2.658768 -0.523121 -3.645226
  H 2.658300 -2.175464 -2.983629
  H 3.347043 -1.416856 -5.856959
  H 1.843349 -2.145268 -5.302954
  H 3.346576 -3.055492 -5.200846
  H 6.815029 -0.523115 -1.248182
 32
 3.841724
  C 0.992298 0.109907 0.435748
  C 2.423668 0.130182 0.392306
  C 3.220786 0.600811 1.557775
  C 2.453595 1.109123 2.776189
  C 3.419610 1.545778 3.873260
  C 3.036703 -0.331370 -0.767988
  C 4.409110 -0.408860 -0.971222
  C 5.098678 -0.854795 -2.090009
  C 4.612102 -1.377927 -3.396385
  C 3.124700 -1.501843 -3.701176
  C 2.925348 -2.064201 -5.106278
  O 6.420064 -0.843477 -2.068046
  H 0.546699 0.490854 1.348265
  H 0.581321 -0.881253 0.229581
  H 0.789409 0.738425 -0.387996
  H 3.891467 1.399621 1.221977
  H 3.866408 -0.223173 1.882745
  H 1.807309 0.324303 3.172985
  H 1.828724 1.960986 2.501927
  H 4.044280 0.715840 4.195956
  H 2.869369 1.907351 4.738433
  H 4.065909 2.349292 3.526946
  H 2.379368 -0.648912 -1.557653
  H 5.029734 -0.078675 -0.147292
  H 5.077595 -2.362605 -3.519782
  H 5.075429 -0.748954 -4.165297
  H 2.644567 -0.524055 -3.652742
  H 2.646816 -2.177478 -2.991201
  H 3.371569 -1.413073 -5.854321
  H 1.864993 -2.154315 -5.328017
  H 3.373813 -3.050562 -5.199219
  H 6.802740 -0.510805 -1.235207
 32
 8.942440
  C 0.931587 0.057388 0.432198
  C 2.399981 0.109228 0.386237
  C 3.222469 0.586890 1.543312
  C 2.472197 1.117621 2.764155
  C 3.456622 1.542047 3.848772
  C 3.016845 -0.340621 -0.771957
  C 4.407590 -0.402467 -0.970061
  C 5.091439 -0.833354 -2.067128
  C 4.610046 -1.359894 -3.372653
  C 3.122318 -1.494240 -3.674859
  C 2.930617 -2.058909 -5.080308
  O 6.402469 -0.809333 -2.041621
  H 0.455097 0.452096 1.325791
  H 0.483077 -0.893465 0.119160
  H 0.954841 0.732582 -0.391913
  H 3.915059 1.366272 1.206119
  H 3.848098 -0.253452 1.866497
  H 1.815463 0.347277 3.173098
  H 1.864413 1.981376 2.486821
  H 4.067632 0.700263 4.171357
  H 2.922795 1.921844 4.718191
  H 4.117145 2.330133 3.489833
  H 2.366224 -0.665932 -1.565853
  H 5.034586 -0.070912 -0.150071
  H 5.087275 -2.340122 -3.496006
  H 5.072607 -0.728132 -4.141121
  H 2.636431 -0.518865 -3.628259
  H 2.651384 -2.174809 -2.964510
  H 3.375247 -1.403530 -5.827622
  H 1.870705 -2.159288 -5.307232
  H 3.389903 -3.041950 -5.171236
  H 6.784153 -0.477901 -1.218668
 32
 15.944009
  C 0.928780 0.043398 0.476090
  C 2.390265 0.112908 0.400273
  C 3.217082 0.590122 1.548747
  C 2.468181 1.124637 2.768048
  C 3.453113 1.545938 3.855741
  C 3.002397 -0.334903 -0.764965
  C 4.398099 -0.395079 -0.969513
  C 5.091322 -0.831782 -2.082765
  C 4.614574 -1.363871 -3.389517
  C 3.127391 -1.506230 -3.697332
  C 2.942126 -2.076561 -5.102865
  O 6.410899 -0.804282 -2.062530
  H 0.454265 0.413002 1.377803
  H 0.450499 -0.850799 0.074316
  H 1.099974 0.783032 -0.301187
  H 3.917170 1.362927 1.213047
  H 3.828213 -0.262214 1.870452
  H 1.808202 0.357477 3.175167
  H 1.864958 1.990195 2.489440
  H 4.059604 0.702838 4.179411
  H 2.919895 1.927684 4.723040
  H 4.116947 2.330238 3.498503
  H 2.350523 -0.664720 -1.554364
  H 5.025776 -0.061902 -0.149827
  H 5.095990 -2.341985 -3.509503
  H 5.076274 -0.732572 -4.158351
  H 2.637504 -0.533177 -3.656365
  H 2.657662 -2.187238 -2.987282
  H 3.385984 -1.422392 -5.850102
  H 1.884648 -2.182219 -5.332545
  H 3.405707 -3.056778 -5.189335
  H 6.792226 -0.468820 -1.238052
 32
 21.980114
  C 0.940246 0.027035 0.501848
  C 2.394650 0.116467 0.403176
  C 3.215575 0.592351 1.550656
  C 2.462989 1.127331 2.768047
  C 3.447372 1.550130 3.857463
  C 3.010890 -0.334486 -0.773984
  C 4.387311 -0.392159 -0.974996
  C 5.087033 -0.831663 -2.092800
  C 4.614583 -1.366254 -3.397553
  C 3.129196 -1.510721 -3.706403
  C 2.946360 -2.084891 -5.110714
  O 6.412715 -0.802624 -2.073425
  H 0.455717 0.360679 1.403297
  H 0.441892 -0.809409 0.036604
  H 1.232313 0.817336 -0.234829
  H 3.919839 1.362089 1.216894
  H 3.820278 -0.263824 1.874309
  H 1.803865 0.360022 3.174678
  H 1.859829 1.992308 2.488691
  H 4.053623 0.708627 4.181809
  H 2.913761 1.931457 4.723068
  H 4.110445 2.333721 3.501062
  H 2.358478 -0.668814 -1.562837
  H 5.009644 -0.058012 -0.154817
  H 5.096396 -2.343275 -3.513621
  H 5.075841 -0.735809 -4.165720
  H 2.638554 -0.537972 -3.668343
  H 2.659532 -2.190323 -2.994864
  H 3.390242 -1.432995 -5.858275
  H 1.890767 -2.192165 -5.341344
  H 3.410744 -3.063750 -5.193981
  H 6.795180 -0.463811 -1.244456
 32
 26.513965
  C 0.949750 0.009103 0.527224
  C 2.390696 0.114915 0.404090
  C 3.218767 0.596375 1.556808
  C 2.459399 1.128662 2.773411
  C 3.437178 1.561310 3.861816
  C 3.010468 -0.337587 -0.776108
  C 4.395783 -0.396788 -0.984179
  C 5.091281 -0.836094 -2.102532
  C 4.619600 -1.372515 -3.411358
  C 3.134692 -1.516673 -3.719386
  C 2.950203 -2.090689 -5.122089
  O 6.413140 -0.806950 -2.084626
  H 0.469629 0.308920 1.432485
  H 0.427743 -0.757063 -0.019508
  H 1.330769 0.856877 -0.143452
  H 3.918688 1.368588 1.223260
  H 3.821387 -0.259133 1.880122
  H 1.807103 0.356697 3.181406
  H 1.849012 1.988122 2.492628
  H 4.050563 0.724989 4.188107
  H 2.899035 1.939792 4.726892
  H 4.094453 2.350454 3.504319
  H 2.354033 -0.674031 -1.560156
  H 5.024123 -0.063034 -0.165084
  H 5.100838 -2.350300 -3.526926
  H 5.080441 -0.741419 -4.179835
  H 2.644775 -0.543240 -3.681048
  H 2.665774 -2.196158 -3.006932
  H 3.394303 -1.438802 -5.870351
  H 1.893664 -2.197708 -5.351999
  H 3.414676 -3.070192 -5.205252
  H 6.790543 -0.468356 -1.254618
 32
 29.399178
  C 0.951574 -0.012571 0.538015
  C 2.386784 0.111059 0.397008
  C 3.211272 0.589716 1.538643
  C 2.457893 1.121306 2.760685
  C 3.443474 1.563602 3.835662
  C 3.012853 -0.344217 -0.785890
  C 4.390437 -0.399059 -0.982684
  C 5.093713 -0.837963 -2.099780
  C 4.625311 -1.371240 -3.404490
  C 3.143406 -1.510507 -3.707100
  C 2.954358 -2.082175 -5.107567
  O 6.422889 -0.809707 -2.080811
  H 0.467690 0.265328 1.467446
  H 0.414653 -0.718315 -0.075737
  H 1.404726 0.886823 -0.069359
  H 3.903682 1.362305 1.199273
  H 3.817542 -0.263502 1.857457
  H 1.814726 0.344019 3.181286
  H 1.837726 1.978314 2.483852
  H 4.066301 0.731978 4.157740
  H 2.912091 1.941153 4.705300
  H 4.091864 2.356198 3.468402
  H 2.356907 -0.685473 -1.575670
  H 5.011591 -0.064657 -0.160589
  H 5.103324 -2.348487 -3.519968
  H 5.085592 -0.741116 -4.171132
  H 2.655756 -0.533499 -3.665981
  H 2.674234 -2.190415 -2.991827
  H 3.398748 -1.430626 -5.856528
  H 1.896980 -2.186184 -5.334789
  H 3.416402 -3.063022 -5.192346
  H 6.799442 -0.472044 -1.248695
 32
 31.654288
  C 0.943619 -0.025545 0.563953
  C 2.367311 0.112634 0.409388
  C 3.212772 0.596042 1.556464
  C 2.471842 1.130665 2.787802
  C 3.470680 1.584430 3.849403
  C 2.986658 -0.345018 -0.777492
  C 4.360196 -0.402280 -0.978654
  C 5.068717 -0.839555 -2.092434
  C 4.622134 -1.377512 -3.416655
  C 3.144401 -1.528285 -3.756657
  C 2.993018 -2.099175 -5.164677
  O 6.388256 -0.806547 -2.056212
  H 0.468175 0.223510 1.495594
  H 0.392203 -0.673632 -0.100573
  H 1.452117 0.909052 0.009916
  H 3.900808 1.371777 1.206182
  H 3.825480 -0.256263 1.873074
  H 1.839753 0.352241 3.221742
  H 1.843411 1.983195 2.516260
  H 4.102854 0.757519 4.166896
  H 2.948676 1.963490 4.725577
  H 4.110076 2.379270 3.469722
  H 2.331921 -0.680007 -1.552326
  H 4.982138 -0.068865 -0.156103
  H 5.109919 -2.354753 -3.524237
  H 5.095437 -0.741055 -4.175174
  H 2.648971 -0.556463 -3.725808
  H 2.664283 -2.212957 -3.055794
  H 3.450679 -1.442117 -5.901811
  H 1.940964 -2.211199 -5.418297
  H 3.465126 -3.076909 -5.240337
  H 6.747520 -0.471484 -1.224010
 32
 33.257481
  C 0.952660 -0.047506 0.546162
  C 2.380106 0.112190 0.392574
  C 3.224557 0.594214 1.547156
  C 2.473054 1.118406 2.767428
  C 3.460843 1.585652 3.835982
  C 3.004008 -0.348739 -0.790968
  C 4.377204 -0.403050 -0.986733
  C 5.083623 -0.841877 -2.096784
  C 4.627100 -1.375990 -3.408020
  C 3.148963 -1.516110 -3.727700
  C 2.975887 -2.085087 -5.129678
  O 6.418469 -0.813331 -2.067190
  H 0.467000 0.178284 1.484801
  H 0.399099 -0.643274 -0.161923
  H 1.512433 0.919264 0.036724
  H 3.905235 1.374881 1.201934
  H 3.838395 -0.249224 1.865769
  H 1.846252 0.329679 3.197607
  H 1.833951 1.964231 2.490025
  H 4.102321 0.766063 4.158252
  H 2.928412 1.958932 4.709783
  H 4.093449 2.389083 3.459588
  H 2.343985 -0.691401 -1.576788
  H 4.998640 -0.067248 -0.163016
  H 5.106655 -2.353801 -3.519003
  H 5.095344 -0.744930 -4.170409
  H 2.661732 -0.542304 -3.690376
  H 2.673909 -2.195655 -3.020777
  H 3.429361 -1.430954 -5.873554
  H 1.919266 -2.189759 -5.369715
  H 3.440637 -3.066971 -5.210704
  H 6.786596 -0.477041 -1.231592
 32
 35.009285
  C 0.956266 -0.048528 0.572072
  C 2.382360 0.124444 0.407598
  C 3.232567 0.600062 1.557897
  C 2.480136 1.117735 2.775401
  C 3.458156 1.589044 3.833839
  C 3.005447 -0.343246 -0.784360
  C 4.378266 -0.399984 -0.987100
  C 5.082404 -0.840014 -2.092645
  C 4.631642 -1.379977 -3.415002
  C 3.147669 -1.525135 -3.751512
  C 2.988390 -2.097858 -5.162694
  O 6.415012 -0.810326 -2.056320
  H 0.472931 0.169283 1.508970
  H 0.396099 -0.602274 -0.159560
  H 1.555172 0.933466 0.088636
  H 3.910804 1.387180 1.209549
  H 3.853360 -0.245591 1.875302
  H 1.865744 0.330823 3.204247
  H 1.838682 1.953508 2.502041
  H 4.101216 0.780369 4.152011
  H 2.927990 1.955108 4.701270
  H 4.078774 2.391177 3.458338
  H 2.342516 -0.684563 -1.562795
  H 5.000018 -0.065056 -0.170975
  H 5.114060 -2.358013 -3.520824
  H 5.104928 -0.748175 -4.174390
  H 2.654131 -0.544986 -3.719171
  H 2.664507 -2.211451 -3.044274
  H 3.445462 -1.445316 -5.900289
  H 1.938508 -2.205081 -5.412425
  H 3.454573 -3.075325 -5.239538
  H 6.776531 -0.473784 -1.220712
 32
 36.512593
  C 0.956254 -0.071855 0.541572
  C 2.386954 0.124305 0.385870
  C 3.236326 0.597249 1.548068
  C 2.477331 1.112628 2.770984
  C 3.458175 1.593470 3.838283
  C 3.022059 -0.344376 -0.799768
  C 4.398743 -0.396438 -0.992442
  C 5.104837 -0.840342 -2.098392
  C 4.640156 -1.380856 -3.414812
  C 3.157329 -1.514156 -3.725740
  C 2.971777 -2.085813 -5.128763
  O 6.439204 -0.814665 -2.067680
  H 0.461272 0.139182 1.471557
  H 0.408501 -0.593502 -0.209524
  H 1.593184 0.931990 0.079360
  H 3.910438 1.385276 1.204494
  H 3.854865 -0.241770 1.863313
  H 1.863765 0.315867 3.203110
  H 1.827603 1.949417 2.496624
  H 4.109296 0.785246 4.158045
  H 2.922493 1.957597 4.709925
  H 4.076547 2.403164 3.461975
  H 2.362211 -0.690989 -1.588176
  H 5.019162 -0.057290 -0.173284
  H 5.114384 -2.361637 -3.525574
  H 5.107948 -0.754876 -4.182344
  H 2.674718 -0.534904 -3.686585
  H 2.682670 -2.192053 -3.012622
  H 3.424370 -1.434804 -5.877549
  H 1.911832 -2.185428 -5.362251
  H 3.431139 -3.071207 -5.211319
  H 6.802837 -0.480185 -1.240161
 32
 38.100394
  C 0.955323 -0.069954 0.559656
  C 2.381977 0.138415 0.393498
  C 3.241207 0.602016 1.555295
  C 2.491687 1.109953 2.771467
  C 3.473067 1.589224 3.832720
  C 3.010121 -0.335954 -0.796012
  C 4.382298 -0.389191 -0.992842
  C 5.090317 -0.835926 -2.096953
  C 4.638449 -1.380750 -3.414782
  C 3.159966 -1.522203 -3.745406
  C 2.996472 -2.096973 -5.148862
  O 6.418221 -0.808100 -2.059300
  H 0.462096 0.143450 1.493768
  H 0.395333 -0.574168 -0.210134
  H 1.621066 0.943440 0.103749
  H 3.916963 1.392104 1.211684
  H 3.859207 -0.239845 1.865583
  H 1.883719 0.315423 3.200508
  H 1.842028 1.941374 2.501170
  H 4.127147 0.781592 4.148661
  H 2.940282 1.950709 4.706817
  H 4.088886 2.400976 3.455530
  H 2.345457 -0.681849 -1.579943
  H 5.003166 -0.047399 -0.175713
  H 5.116048 -2.356990 -3.516950
  H 5.110605 -0.756434 -4.176027
  H 2.671868 -0.545637 -3.714840
  H 2.679360 -2.201168 -3.038139
  H 3.453950 -1.447750 -5.889604
  H 1.945179 -2.202082 -5.395542
  H 3.460138 -3.076165 -5.223072
  H 6.784065 -0.464199 -1.213607
 32
 39.654417
  C 0.965188 -0.085067 0.543385
  C 2.394868 0.144224 0.379251
  C 3.250805 0.601666 1.550249
  C 2.487818 1.111997 2.781897
  C 3.465627 1.594760 3.850937
  C 3.028152 -0.333545 -0.807573
  C 4.400798 -0.382977 -1.000727
  C 5.108313 -0.832513 -2.102223
  C 4.648369 -1.382096 -3.418902
  C 3.162721 -1.517881 -3.738584
  C 2.982897 -2.099026 -5.143577
  O 6.440982 -0.808749 -2.065506
  H 0.463398 0.130077 1.476112
  H 0.414394 -0.568985 -0.230856
  H 1.661485 0.949146 0.092299
  H 3.924123 1.388925 1.212821
  H 3.864538 -0.237447 1.856946
  H 1.879604 0.313751 3.208781
  H 1.835722 1.940752 2.511842
  H 4.120316 0.791996 4.167192
  H 2.930704 1.951719 4.721874
  H 4.077563 2.406736 3.479503
  H 2.369667 -0.679983 -1.589188
  H 5.018386 -0.038185 -0.184328
  H 5.124441 -2.367628 -3.520721
  H 5.122158 -0.758290 -4.191188
  H 2.681568 -0.543015 -3.706948
  H 2.685796 -2.188494 -3.026950
  H 3.438938 -1.452967 -5.893385
  H 1.923771 -2.200008 -5.382137
  H 3.442087 -3.084038 -5.218590
  H 6.804738 -0.468063 -1.230224
 32
 40.868874
  C 0.966256 -0.090999 0.551288
  C 2.400296 0.159775 0.379735
  C 3.255377 0.604781 1.549079
  C 2.492095 1.107455 2.775195
  C 3.466566 1.587320 3.844422
  C 3.032489 -0.324852 -0.811471
  C 4.401975 -0.377959 -1.006638
  C 5.107637 -0.831912 -2.107231
  C 4.648438 -1.382383 -3.416311
  C 3.168832 -1.518306 -3.735038
  C 2.992346 -2.098822 -5.132211
  O 6.444087 -0.808285 -2.073181
  H 0.472554 0.124571 1.466746
  H 0.400886 -0.567080 -0.245080
  H 1.692590 0.969560 0.098860
  H 3.931248 1.396416 1.215394
  H 3.874286 -0.247121 1.856004
  H 1.886973 0.309251 3.196827
  H 1.838555 1.935874 2.506819
  H 4.127549 0.777338 4.160273
  H 2.924911 1.942822 4.722982
  H 4.082735 2.409660 3.471765
  H 2.372245 -0.670605 -1.588865
  H 5.023631 -0.029947 -0.189116
  H 5.121250 -2.362172 -3.514526
  H 5.119080 -0.764517 -4.184544
  H 2.686374 -0.541718 -3.705470
  H 2.691094 -2.189000 -3.022269
  H 3.446992 -1.456267 -5.879064
  H 1.939886 -2.200023 -5.370132
  H 3.450431 -3.079885 -5.204572
  H 6.807777 -0.466685 -1.245022
