 23
 0.000000
  C 0.998481 0.130566 0.375440
  C 2.470500 0.142726 0.407487
  C 3.228050 0.616501 1.586360
  C 2.429431 1.101924 2.792399
  C 3.366931 1.550309 3.909777
  C 3.127863 -0.315672 -0.731909
  C 4.510604 -0.384627 -0.904934
  C 5.111117 -0.845800 -2.054255
  H 4.569495 -1.196612 -2.924548
  O 6.397814 -0.915534 -2.234775
  H 0.543873 0.497621 1.287401
  H 0.641029 -0.883350 0.188480
  H 0.641921 0.733169 -0.461514
  H 3.889438 1.429239 1.264776
  H 3.888466 -0.193291 1.917230
  H 1.791611 0.301677 3.171565
  H 1.792853 1.942798 2.511861
  H 4.001880 0.730911 4.239106
  H 2.794334 1.895298 4.767052
  H 4.003224 2.368790 3.580761
  H 2.503653 -0.645423 -1.551837
  H 5.140842 -0.057138 -0.090890
  H 6.929553 -0.606926 -1.473179
 23
 8.218706
  C 1.005448 0.131709 0.374317
  C 2.477274 0.140389 0.404589
  C 3.239466 0.612115 1.578956
  C 2.442629 1.103408 2.793344
  C 3.388700 1.547252 3.905060
  C 3.133535 -0.330253 -0.759608
  C 4.477309 -0.407267 -0.956362
  C 5.157740 -0.849637 -2.059489
  H 4.614676 -1.205738 -2.926972
  O 6.448404 -0.893999 -2.195016
  H 0.553927 0.500196 1.285373
  H 0.644414 -0.883749 0.178827
  H 0.648624 0.729608 -0.471267
  H 3.905565 1.428360 1.261100
  H 3.901393 -0.199450 1.916891
  H 1.805183 0.305572 3.176113
  H 1.810770 1.947842 2.515359
  H 4.021099 0.724744 4.231136
  H 2.823337 1.895535 4.765881
  H 4.027120 2.362378 3.572348
  H 2.468279 -0.651184 -1.553360
  H 4.828779 -0.035471 -0.038811
  H 6.948469 -0.573958 -1.423807
 23
 25.864973
  C 1.012494 0.133578 0.379716
  C 2.484800 0.135221 0.390896
  C 3.261726 0.606776 1.564352
  C 2.452637 1.106625 2.800983
  C 3.402522 1.551969 3.916981
  C 3.115031 -0.345272 -0.798222
  C 4.442888 -0.436074 -1.028710
  C 5.201063 -0.861826 -2.089876
  H 4.732108 -1.227149 -2.983754
  O 6.497297 -0.871431 -2.137179
  H 0.576172 0.503641 1.295434
  H 0.643867 -0.886185 0.187534
  H 0.646956 0.736128 -0.466469
  H 3.926918 1.435418 1.257145
  H 3.923878 -0.205530 1.918152
  H 1.812723 0.308847 3.189183
  H 1.817910 1.954100 2.525335
  H 4.034232 0.729654 4.243254
  H 2.837255 1.900413 4.778202
  H 4.040910 2.366952 3.585069
  H 2.389835 -0.646326 -1.542537
  H 4.565008 -0.044996 -0.062593
  H 6.931894 -0.542204 -1.339085
 23
 45.770848
  C 1.008226 0.137947 0.388705
  C 2.479955 0.141226 0.406946
  C 3.258477 0.614285 1.584716
  C 2.460154 1.103136 2.793307
  C 3.406501 1.549401 3.910057
  C 3.131611 -0.344508 -0.794158
  C 4.461270 -0.443650 -1.043768
  C 5.228616 -0.866485 -2.099776
  H 4.766643 -1.234805 -3.000372
  O 6.521802 -0.870675 -2.138520
  H 0.565944 0.510480 1.308230
  H 0.639825 -0.874546 0.197986
  H 0.644392 0.736026 -0.452080
  H 3.923089 1.435841 1.274132
  H 3.919036 -0.195947 1.931855
  H 1.820207 0.300922 3.175231
  H 1.825511 1.949838 2.511761
  H 4.038501 0.729232 4.237992
  H 2.839082 1.896734 4.768151
  H 4.043643 2.364497 3.579205
  H 2.381074 -0.642969 -1.536340
  H 4.395763 -0.051210 -0.070197
  H 6.949249 -0.534255 -1.329296
 23
 65.277670
  C 1.012867 0.139159 0.394479
  C 2.478250 0.153123 0.427584
  C 3.245904 0.622895 1.597514
  C 2.454216 1.104811 2.801946
  C 3.400075 1.549191 3.911009
  C 3.156993 -0.335951 -0.790838
  C 4.489292 -0.442858 -1.054886
  C 5.234209 -0.869167 -2.107618
  H 4.761671 -1.247571 -3.010671
  O 6.536647 -0.882976 -2.154784
  H 0.558583 0.507200 1.310320
  H 0.655749 -0.869812 0.199593
  H 0.655015 0.732141 -0.444468
  H 3.904243 1.439823 1.290280
  H 3.905682 -0.179336 1.938631
  H 1.819988 0.303070 3.182771
  H 1.819614 1.947695 2.524750
  H 4.035703 0.728130 4.235279
  H 2.834616 1.893782 4.771971
  H 4.035247 2.367419 3.578777
  H 2.398991 -0.637711 -1.538818
  H 4.284208 -0.051833 -0.092722
  H 6.970545 -0.552199 -1.346373
 23
 82.678045
  C 1.019315 0.140570 0.390505
  C 2.490620 0.153645 0.425987
  C 3.256207 0.626660 1.606725
  C 2.446876 1.109065 2.812926
  C 3.379294 1.554055 3.928209
  C 3.169920 -0.327040 -0.770889
  C 4.516783 -0.449627 -1.058428
  C 5.240273 -0.889682 -2.131796
  H 4.776434 -1.270944 -3.022731
  O 6.536373 -0.896474 -2.200881
  H 0.564600 0.511124 1.312368
  H 0.658820 -0.873805 0.194474
  H 0.660203 0.737812 -0.451825
  H 3.918577 1.444463 1.309811
  H 3.920018 -0.171764 1.955279
  H 1.807260 0.301336 3.193279
  H 1.808311 1.957084 2.530876
  H 4.014134 0.733897 4.257852
  H 2.806346 1.896283 4.783339
  H 4.015667 2.374477 3.602191
  H 2.396879 -0.624624 -1.511961
  H 4.188766 -0.059898 -0.111593
  H 6.981469 -0.550836 -1.400552
 23
 95.455174
  C 1.033889 0.149965 0.370905
  C 2.500428 0.157393 0.431067
  C 3.255207 0.630358 1.626233
  C 2.434657 1.115382 2.824700
  C 3.357552 1.551517 3.951846
  C 3.187928 -0.316453 -0.743289
  C 4.551169 -0.470576 -1.051100
  C 5.229622 -0.932633 -2.124987
  H 4.738953 -1.393645 -2.989085
  O 6.527530 -0.881638 -2.266724
  H 0.569692 0.523374 1.290754
  H 0.671589 -0.860592 0.175419
  H 0.687880 0.755717 -0.464694
  H 3.927564 1.448801 1.339072
  H 3.912092 -0.181680 1.976134
  H 1.784992 0.307550 3.193369
  H 1.804868 1.969715 2.534534
  H 3.984265 0.723953 4.286839
  H 2.774812 1.896519 4.803878
  H 4.004047 2.370238 3.633928
  H 2.422408 -0.605742 -1.491379
  H 4.129611 -0.071483 -0.117634
  H 6.991644 -0.448558 -1.517826
 23
 100.083935
  C 1.024209 0.183782 0.367648
  C 2.504181 0.180575 0.437012
  C 3.247760 0.640556 1.646091
  C 2.412708 1.111358 2.837958
  C 3.327553 1.536090 3.987893
  C 3.200965 -0.275725 -0.719600
  C 4.579770 -0.491750 -1.104814
  C 5.257327 -1.018371 -2.115353
  H 4.784015 -1.690413 -2.839400
  O 6.544086 -0.868998 -2.378015
  H 0.569514 0.543278 1.284525
  H 0.650490 -0.822136 0.164688
  H 0.680691 0.815706 -0.453830
  H 3.921050 1.463582 1.379081
  H 3.891470 -0.177975 1.994279
  H 1.762298 0.306321 3.186370
  H 1.792606 1.965028 2.554377
  H 3.951842 0.702887 4.321379
  H 2.733519 1.872744 4.840088
  H 3.978977 2.358288 3.686590
  H 2.458381 -0.543645 -1.485766
  H 4.103589 -0.065289 -0.130209
  H 7.002156 -0.272862 -1.755933
 23
 104.269510
  C 1.037443 0.216936 0.362395
  C 2.517507 0.202769 0.464403
  C 3.244882 0.649859 1.691609
  C 2.388500 1.116591 2.866711
  C 3.275229 1.527069 4.033561
  C 3.235199 -0.251627 -0.684810
  C 4.594731 -0.520872 -1.171274
  C 5.276062 -1.106464 -2.135321
  H 4.849529 -1.936583 -2.704797
  O 6.520669 -0.865189 -2.521375
  H 0.570716 0.567962 1.270801
  H 0.658834 -0.779862 0.143573
  H 0.718187 0.858469 -0.456032
  H 3.925208 1.475828 1.434910
  H 3.876156 -0.179006 2.050042
  H 1.728301 0.314943 3.199452
  H 1.775468 1.977036 2.575567
  H 3.886250 0.692047 4.372342
  H 2.666680 1.858468 4.869583
  H 3.934205 2.343856 3.754836
  H 2.519636 -0.502064 -1.478954
  H 4.117806 -0.058864 -0.130143
  H 6.941527 -0.130831 -2.040434
 23
 107.946384
  C 1.057478 0.248419 0.350992
  C 2.531361 0.212573 0.485957
  C 3.241927 0.644214 1.730059
  C 2.368454 1.119431 2.886053
  C 3.237101 1.522114 4.076012
  C 3.269576 -0.246265 -0.665559
  C 4.586063 -0.555619 -1.217019
  C 5.290017 -1.180513 -2.132795
  H 4.947744 -2.121305 -2.571240
  O 6.478116 -0.840797 -2.626210
  H 0.576016 0.598486 1.254793
  H 0.666241 -0.744944 0.113106
  H 0.764210 0.903641 -0.472022
  H 3.934533 1.460283 1.489909
  H 3.857292 -0.189579 2.101711
  H 1.691697 0.323352 3.203731
  H 1.775351 1.984232 2.584164
  H 3.831979 0.683328 4.428651
  H 2.613730 1.861374 4.900778
  H 3.912039 2.334494 3.809553
  H 2.560028 -0.485260 -1.463153
  H 4.124391 -0.036728 -0.124378
  H 6.813725 0.002766 -2.277629
 23
 110.568882
  C 1.069807 0.283831 0.338298
  C 2.535744 0.221359 0.502526
  C 3.237518 0.631447 1.756520
  C 2.354337 1.119651 2.901146
  C 3.215029 1.509423 4.102702
  C 3.289623 -0.248055 -0.666562
  C 4.564545 -0.588819 -1.244163
  C 5.322765 -1.232465 -2.096818
  H 5.102914 -2.261095 -2.389207
  O 6.433349 -0.802223 -2.702916
  H 0.578074 0.634219 1.237822
  H 0.665148 -0.697942 0.082970
  H 0.801651 0.949292 -0.483769
  H 3.950046 1.438800 1.530253
  H 3.835805 -0.211924 2.135680
  H 1.662746 0.332523 3.209295
  H 1.783550 1.994160 2.593959
  H 3.792946 0.665599 4.463201
  H 2.587638 1.859492 4.919667
  H 3.905440 2.312916 3.841502
  H 2.560257 -0.479990 -1.445630
  H 4.098270 -0.011580 -0.096236
  H 6.649794 0.122263 -2.493661
 23
 110.922692
  C 1.087927 0.322669 0.321668
  C 2.544181 0.244231 0.521040
  C 3.238210 0.631732 1.785638
  C 2.340365 1.116468 2.920605
  C 3.190248 1.487155 4.141891
  C 3.317733 -0.239576 -0.685141
  C 4.539153 -0.619802 -1.276033
  C 5.360585 -1.278214 -2.049879
  H 5.316999 -2.366841 -2.115134
  O 6.367727 -0.802595 -2.798552
  H 0.584124 0.668613 1.216978
  H 0.676618 -0.653846 0.046442
  H 0.838724 1.001315 -0.500038
  H 3.966821 1.436399 1.585085
  H 3.820128 -0.212996 2.163326
  H 1.642493 0.331241 3.209769
  H 1.784232 2.003139 2.611314
  H 3.755846 0.635833 4.502231
  H 2.555285 1.835622 4.954036
  H 3.887513 2.281925 3.899758
  H 2.574200 -0.475869 -1.448914
  H 4.050253 0.083319 -0.067154
  H 6.425497 0.167383 -2.779976
 23
 112.093946
  C 1.094038 0.334716 0.331087
  C 2.556495 0.262193 0.545146
  C 3.244912 0.651269 1.804666
  C 2.332799 1.121300 2.937291
  C 3.162647 1.484386 4.171166
  C 3.331066 -0.234547 -0.673877
  C 4.506251 -0.658791 -1.309606
  C 5.364947 -1.301004 -2.041808
  H 5.430018 -2.386699 -1.995127
  O 6.325759 -0.806147 -2.848053
  H 0.585913 0.682427 1.219645
  H 0.690835 -0.637085 0.059932
  H 0.843522 1.008894 -0.489892
  H 3.969332 1.459743 1.619405
  H 3.833941 -0.203203 2.186358
  H 1.627189 0.339692 3.206636
  H 1.782510 2.003692 2.627650
  H 3.728205 0.620376 4.536409
  H 2.517498 1.824007 4.973466
  H 3.865603 2.284120 3.947224
  H 2.622946 -0.460931 -1.467989
  H 4.029664 0.131669 -0.050435
  H 6.289943 0.161312 -2.912679
 23
 112.028479
  C 1.117849 0.342097 0.338869
  C 2.572201 0.281199 0.577507
  C 3.242450 0.671947 1.841644
  C 2.313953 1.123740 2.969416
  C 3.126418 1.483192 4.212355
  C 3.380755 -0.212301 -0.642051
  C 4.537289 -0.659484 -1.311293
  C 5.388026 -1.320461 -2.032663
  H 5.502482 -2.395178 -1.897460
  O 6.248696 -0.861080 -2.965664
  H 0.593095 0.682001 1.218113
  H 0.726956 -0.637063 0.055376
  H 0.875424 1.014865 -0.483323
  H 3.952401 1.490103 1.668062
  H 3.843352 -0.176934 2.218187
  H 1.610326 0.332539 3.229653
  H 1.752683 2.004938 2.659553
  H 3.689469 0.626109 4.569733
  H 2.466490 1.810576 5.014097
  H 3.825427 2.290556 4.005495
  H 2.672591 -0.435026 -1.437510
  H 4.034574 0.245875 -0.050732
  H 6.154344 0.092817 -3.115115
