 26
 0.000000
  C 0.958733 0.142238 0.405928
  C 2.435627 0.138812 0.396949
  C 3.229471 0.606512 1.560312
  H 2.691778 0.951460 2.418681
  C 3.047724 -0.326485 -0.761128
  C 4.427680 -0.410350 -0.970580
  C 5.111749 -0.860636 -2.093538
  C 4.622398 -1.384411 -3.399794
  C 3.132979 -1.504809 -3.700598
  C 2.922534 -2.067455 -5.103799
  O 6.434575 -0.852273 -2.073085
  H 0.530877 0.513603 1.329858
  H 0.585106 -0.868946 0.237722
  H 0.584800 0.755552 -0.415298
  H 3.886571 1.416144 1.222870
  H 3.886751 -0.211308 1.877002
  H 2.388559 -0.643775 -1.550690
  H 5.047217 -0.079018 -0.145404
  H 5.082172 -2.371786 -3.523346
  H 5.082493 -0.756172 -4.171309
  H 2.655388 -0.525521 -3.650229
  H 2.655156 -2.177872 -2.987664
  H 3.365851 -1.418585 -5.855871
  H 1.859660 -2.152844 -5.317123
  H 3.365674 -3.056276 -5.199167
  H 6.800018 -0.516405 -1.234749
 26
 0.000000
  C 0.944716 0.165967 0.465096
  C 2.421589 0.161467 0.453430
  C 3.217888 0.628593 1.615344
  H 2.682009 0.973936 2.474688
  C 3.031239 -0.304281 -0.705756
  C 4.410750 -0.389151 -0.917718
  C 5.155327 -0.881518 -2.145609
  C 4.663220 -1.404939 -3.450971
  C 3.173169 -1.524249 -3.749066
  C 2.959762 -2.086745 -5.151880
  O 6.332734 -0.888411 -2.163188
  H 0.518812 0.537647 1.389801
  H 0.570048 -0.844945 0.297575
  H 0.569736 0.779550 -0.355452
  H 3.874962 1.437745 1.276703
  H 3.875148 -0.189704 1.930842
  H 2.370408 -0.621094 -1.494116
  H 5.032028 -0.058266 -0.093672
  H 5.122047 -2.392650 -3.575355
  H 5.122370 -0.777038 -4.223324
  H 2.696386 -0.544612 -3.697833
  H 2.696151 -2.196961 -3.035262
  H 3.402185 -1.438201 -5.904759
  H 1.896439 -2.171358 -5.363271
  H 3.402005 -3.075890 -5.248050
  H 6.650414 -0.555499 -1.332245
 26
 0.000000
  C 0.927042 0.191956 0.529894
  C 2.403879 0.186112 0.514873
  C 3.203240 0.652519 1.674973
  H 2.669629 0.998352 2.535530
  C 3.010471 -0.280194 -0.645692
  C 4.389420 -0.366319 -0.860787
  C 5.199316 -0.904963 -2.204068
  C 4.703769 -1.427938 -3.508307
  C 3.212936 -1.545889 -3.803018
  C 2.995832 -2.108193 -5.205341
  O 6.254609 -0.925303 -2.255170
  H 0.503578 0.564026 1.455562
  H 0.551075 -0.818616 0.363231
  H 0.550757 0.805876 -0.289804
  H 3.860279 1.461072 1.334835
  H 3.860471 -0.166374 1.988982
  H 2.347563 -0.596409 -1.432547
  H 5.012869 -0.035997 -0.038156
  H 5.161410 -2.416068 -3.633728
  H 5.161738 -0.800459 -4.281703
  H 2.737166 -0.565817 -3.750707
  H 2.736926 -2.218163 -3.088130
  H 3.437137 -1.460055 -5.959226
  H 1.931956 -2.191835 -5.414317
  H 3.436953 -3.097741 -5.302510
  H 6.538808 -0.591634 -1.422357
 26
 0.000000
  C 0.905872 0.220240 0.600416
  C 2.382656 0.212803 0.581417
  C 3.185642 0.678352 1.739356
  H 2.654724 1.024765 2.601345
  C 2.985616 -0.254161 -0.580775
  C 4.363886 -0.341775 -0.799582
  C 5.243730 -0.930948 -2.268854
  C 4.744107 -1.453388 -3.571752
  C 3.252360 -1.569725 -3.862448
  C 3.030872 -2.131796 -5.264179
  O 6.199758 -0.963052 -2.349283
  H 0.485304 0.592771 1.527219
  H 0.528367 -0.789926 0.434773
  H 0.528043 0.834563 -0.218269
  H 3.842634 1.486195 1.397445
  H 3.842832 -0.141248 2.051600
  H 2.320250 -0.569664 -1.365839
  H 4.989905 -0.012122 0.021363
  H 5.200339 -2.442013 -3.698399
  H 5.200671 -0.826406 -4.346381
  H 2.777793 -0.589138 -3.808861
  H 2.777548 -2.241482 -3.146277
  H 3.470847 -1.484138 -6.019252
  H 1.966347 -2.214287 -5.470290
  H 3.470658 -3.121822 -5.362530
  H 6.461802 -0.625067 -1.505725
 26
 0.000000
  C 0.881802 0.250437 0.675704
  C 2.358512 0.241212 0.652241
  C 3.165558 0.705792 1.807745
  H 2.637668 1.052850 2.671332
  C 2.957391 -0.226486 -0.511765
  C 4.334886 -0.315770 -0.734737
  C 5.288114 -0.959011 -2.338822
  C 4.783922 -1.480845 -3.640202
  C 3.291164 -1.595370 -3.926389
  C 3.064759 -2.157174 -5.327442
  O 6.166327 -1.001382 -2.444842
  H 0.464489 0.623480 1.603771
  H 0.502576 -0.759272 0.511210
  H 0.502244 0.865214 -0.141839
  H 3.822491 1.512838 1.463842
  H 3.822696 -0.114602 2.118006
  H 2.289273 -0.541186 -1.294812
  H 4.963783 0.013128 0.084310
  H 5.238568 -2.470024 -3.768222
  H 5.238906 -0.854421 -4.416210
  H 2.817953 -0.614207 -3.871374
  H 2.817702 -2.266548 -3.208784
  H 3.503238 -1.510053 -6.083844
  H 1.999517 -2.238372 -5.530335
  H 3.503042 -3.147734 -5.427116
  H 6.415054 -0.655777 -1.582300
 26
 0.000000
  C 0.855756 0.281892 0.754129
  C 2.332370 0.270766 0.725920
  C 3.143723 0.734311 1.878821
  H 2.619058 1.082051 2.744098
  C 2.926902 -0.197707 -0.440001
  C 4.303558 -0.288764 -0.667398
  C 5.331865 -0.988391 -2.412070
  C 4.822823 -1.509575 -3.711821
  C 3.329005 -1.622171 -3.993212
  C 3.097376 -2.183684 -5.393527
  O 6.150533 -1.039796 -2.540608
  H 0.441909 0.655476 1.683530
  H 0.474703 -0.727328 0.590862
  H 0.474364 0.897155 -0.062195
  H 3.800586 1.540508 1.532803
  H 3.800798 -0.086928 2.186974
  H 2.255866 -0.511549 -1.220894
  H 4.935506 0.039326 0.149621
  H 5.275776 -2.499341 -3.841295
  H 5.276121 -0.883740 -4.489290
  H 2.857242 -0.640397 -3.936682
  H 2.856984 -2.292736 -3.274086
  H 3.534259 -1.537131 -6.151338
  H 2.031384 -2.263505 -5.592998
  H 3.534057 -3.174809 -5.494603
  H 6.392226 -0.683823 -1.652225
 26
 0.000000
  C 0.828569 0.314059 0.834325
  C 2.305067 0.300993 0.801277
  C 3.120803 0.763475 1.951508
  H 2.599434 1.111906 2.818497
  C 2.895158 -0.168264 -0.366584
  C 4.270940 -0.261130 -0.598492
  C 5.374656 -1.018404 -2.486898
  C 4.860671 -1.538919 -3.784972
  C 3.365793 -1.649546 -4.061466
  C 3.128838 -2.210755 -5.461012
  O 6.147765 -1.077912 -2.635633
  H 0.418262 0.688188 1.765075
  H 0.445658 -0.694661 0.672316
  H 0.445312 0.929819 0.019251
  H 3.777586 1.568808 1.603333
  H 3.777805 -0.058625 2.257511
  H 2.221155 -0.481227 -1.145271
  H 4.905994 0.066133 0.216449
  H 5.311893 -2.529281 -3.915924
  H 5.312244 -0.913683 -4.563925
  H 2.895512 -0.667152 -4.003397
  H 2.895247 -2.319487 -3.340794
  H 3.564087 -1.564779 -6.220253
  H 2.062093 -2.289171 -5.656989
  H 3.563878 -3.202455 -5.563513
  H 6.386190 -0.709574 -1.716425
 26
 0.000000
  C 0.800756 0.346657 0.915596
  C 2.277120 0.331663 0.877738
  C 3.097202 0.793083 2.025302
  H 2.579116 1.142197 2.893983
  C 2.862790 -0.138366 -0.292036
  C 4.237687 -0.233029 -0.528425
  C 5.416482 -1.048637 -2.562272
  C 4.897592 -1.568479 -3.858662
  C 3.401677 -1.677149 -4.130287
  C 3.159431 -2.238048 -5.529051
  O 6.154107 -1.115589 -2.729561
  H 0.393971 0.721324 1.847675
  H 0.416003 -0.661563 0.754842
  H 0.415649 0.962915 0.101771
  H 3.753898 1.597557 1.674984
  H 3.754124 -0.029873 2.329170
  H 2.185845 -0.450451 -1.068521
  H 4.875819 0.093406 0.284441
  H 5.347087 -2.559432 -3.991078
  H 5.347445 -0.943836 -4.639085
  H 2.932875 -0.694139 -4.070692
  H 2.932603 -2.346473 -3.408083
  H 3.593052 -1.592643 -6.289709
  H 2.091953 -2.315068 -5.721553
  H 3.592836 -3.230317 -5.632963
  H 6.390925 -0.733582 -1.776278
 26
 0.000000
  C 0.772555 0.379602 0.997732
  C 2.248771 0.362721 0.955164
  C 3.073099 0.823095 2.100103
  H 2.558234 1.172873 2.970431
  C 2.830105 -0.108060 -0.216469
  C 4.204119 -0.204481 -0.457242
  C 5.457485 -1.078880 -2.637669
  C 4.933798 -1.598057 -3.932396
  C 3.436887 -1.704808 -4.199249
  C 3.189463 -2.265397 -5.597231
  O 6.166888 -1.152836 -2.822417
  H 0.369226 0.754791 1.931102
  H 0.386003 -0.628126 0.838213
  H 0.385642 0.996349 0.185136
  H 3.729702 1.626728 1.747686
  H 3.729935 -0.000699 2.401879
  H 2.150288 -0.419281 -0.990789
  H 4.845257 0.121141 0.353581
  H 5.381597 -2.589586 -4.066239
  H 5.381962 -0.973992 -4.714252
  H 2.969538 -0.721198 -4.138164
  H 2.969260 -2.373529 -3.475550
  H 3.621484 -1.620550 -6.359271
  H 2.121278 -2.341047 -5.786328
  H 3.621261 -3.258222 -5.702519
  H 6.402166 -0.756372 -1.833092
 26
 0.000000
  C 0.744048 0.412901 1.080751
  C 2.220103 0.394188 1.033612
  C 3.048543 0.853543 2.175990
  H 2.536810 1.203962 3.047905
  C 2.797221 -0.077317 -0.139813
  C 4.170363 -0.175442 -0.384839
  C 5.497817 -1.109019 -2.712805
  C 4.969480 -1.627545 -4.005903
  C 3.471618 -1.732431 -4.268122
  C 3.219171 -2.292714 -5.665329
  O 6.184494 -1.189717 -2.914360
  H 0.344077 0.788593 2.015363
  H 0.355754 -0.594347 0.922436
  H 0.355386 1.030126 0.269352
  H 3.705048 1.656360 1.821536
  H 3.705288 0.028935 2.475735
  H 2.114624 -0.387696 -0.912022
  H 4.814413 0.149386 0.423993
  H 5.415627 -2.619631 -4.141126
  H 5.415999 -1.004039 -4.789145
  H 3.005686 -0.748240 -4.205596
  H 3.005400 -2.400568 -3.542976
  H 3.649634 -1.648406 -6.428705
  H 2.150312 -2.367033 -5.851119
  H 3.649404 -3.286075 -5.771948
  H 6.417115 -0.778346 -1.887874
 26
 0.000000
  C 0.715232 0.446596 1.164757
  C 2.191116 0.426117 1.113209
  C 3.023514 0.884483 2.253104
  H 2.514807 1.235517 3.126542
  C 2.764162 -0.046081 -0.061932
  C 4.136447 -0.145851 -0.311058
  C 5.537580 -1.138966 -2.787461
  C 5.004762 -1.656858 -4.078973
  C 3.505999 -1.759944 -4.336720
  C 3.248709 -2.319924 -5.733164
  O 6.206012 -1.226301 -3.005562
  H 0.318504 0.822769 2.100557
  H 0.325262 -0.560187 1.007609
  H 0.324887 1.064283 0.354519
  H 3.679918 1.686513 1.896686
  H 3.680164 0.059091 2.550892
  H 2.078891 -0.355646 -0.832096
  H 4.783299 0.178209 0.495845
  H 5.449311 -2.649479 -4.215523
  H 5.449690 -1.033890 -4.863548
  H 3.041439 -0.775193 -4.272807
  H 3.041145 -2.427520 -3.610182
  H 3.677666 -1.676135 -6.497825
  H 2.179212 -2.392960 -5.915762
  H 3.677429 -3.313802 -5.841062
  H 6.433960 -0.799780 -1.941307
 26
 0.000000
  C 0.686055 0.480745 1.249893
  C 2.161760 0.458572 1.194116
  C 2.997947 0.915985 2.331618
  H 2.492148 1.267604 3.206508
  C 2.730894 -0.014287 0.017341
  C 4.102344 -0.115633 -0.235716
  C 5.576814 -1.168619 -2.861383
  C 5.039703 -1.685897 -4.151362
  C 3.540090 -1.787256 -4.404815
  C 3.278157 -2.346941 -5.800515
  O 6.230956 -1.262638 -3.096147
  H 0.292442 0.857375 2.186823
  H 0.294480 -0.525590 1.093869
  H 0.294099 1.098878 0.440773
  H 3.654247 1.717260 1.973316
  H 3.654500 0.089840 2.627528
  H 2.043063 -0.323067 -0.750855
  H 4.751877 0.207686 0.569328
  H 5.482714 -2.679030 -4.289180
  H 5.483100 -1.063443 -4.937211
  H 3.076850 -0.801970 -4.339577
  H 3.076549 -2.454295 -3.676946
  H 3.705664 -1.703647 -6.566404
  H 2.208058 -2.418743 -5.980049
  H 3.705419 -3.341312 -5.909636
  H 6.451510 -0.820830 -1.993786
 26
 0.000000
  C 0.656414 0.515424 1.336350
  C 2.131937 0.491635 1.276540
  C 2.971729 0.948136 2.411751
  H 2.468709 1.300311 3.288018
  C 2.697335 0.018150 0.098217
  C 4.067976 -0.084697 -0.158586
  C 5.615490 -1.197836 -2.934219
  C 5.074290 -1.714525 -4.222725
  C 3.573881 -1.814235 -4.472082
  C 3.307522 -2.373633 -5.867058
  O 6.259062 -1.298738 -3.186141
  H 0.265776 0.892487 2.274351
  H 0.263313 -0.490482 1.181402
  H 0.262925 1.133983 0.528301
  H 3.627924 1.748691 2.051652
  H 3.628183 0.121274 2.705870
  H 2.007070 -0.289879 -0.668094
  H 4.720060 0.237913 0.644678
  H 5.515832 -2.708145 -4.361748
  H 5.516224 -1.092560 -5.009784
  H 3.111904 -0.828440 -4.405583
  H 3.111596 -2.480763 -3.742947
  H 3.733643 -1.730810 -6.634114
  H 2.236858 -2.444259 -6.043670
  H 3.733391 -3.368474 -5.977342
  H 6.468938 -0.841547 -2.045434
 26
 0.000000
  C 0.626130 0.550757 1.424436
  C 2.101467 0.525440 1.360813
  C 2.944664 0.981074 2.493846
  H 2.444275 1.333773 3.371409
  C 2.663326 0.051367 0.181034
  C 4.033192 -0.052900 -0.079311
  C 5.653494 -1.226397 -3.005417
  C 5.108429 -1.742524 -4.292519
  C 3.607278 -1.840673 -4.537998
  C 3.336734 -2.399795 -5.932280
  O 6.290141 -1.334535 -3.275380
  H 0.238308 0.928227 2.363442
  H 0.231588 -0.454742 1.270511
  H 0.231194 1.169721 0.617404
  H 3.600754 1.780948 2.132047
  H 3.601020 0.153534 2.786272
  H 1.970764 -0.255949 -0.583489
  H 4.687684 0.269036 0.722263
  H 5.548576 -2.736603 -4.432678
  H 5.548976 -1.121020 -5.080719
  H 3.146501 -0.854398 -4.470310
  H 3.146185 -2.506718 -3.807669
  H 3.761541 -1.757417 -6.700437
  H 2.265545 -2.469307 -6.106125
  H 3.761282 -3.395079 -6.043660
  H 6.485604 -0.861854 -2.096061
