13

H -1.3126182368595303 -0.4873690141145162 0.6179627377976622
C -0.863222 0.279194 0.021872
H -1.172372635695985 0.18000890638514264 -0.9976809420551837
C -1.198902 1.6591 0.409633
C -2.401088 2.015374 1.152329
H -0.5871745146562727 2.4738761148980695 0.08278538066241364
H 0.224828 0.140625 0.049957
H -2.864506 1.172243 1.644131
H -3.117159 2.451029 0.450882
H -2.184462 2.81775 1.858846
O 2.219118 -0.264571 -0.249324
H 2.7395 0.177412 0.426101
H 2.833079 -0.510784 -0.947527
