 24
 0.000000
  C 0.829620 0.045576 0.328012
  C 2.314973 0.058064 0.106650
  C 3.232036 -0.010369 1.319507
  C 2.587989 -0.088217 2.699051
  H 3.357655 -0.131264 3.461988
  C 2.897597 0.125489 -1.088242
  C 2.344080 0.204327 -2.485423
  C 0.841135 0.219172 -2.748439
  C 0.567221 0.303767 -4.247659
  H 3.980672 0.126759 -1.110724
  H 0.570226 -0.013782 1.379912
  H 0.374718 -0.815985 -0.154716
  H 0.374720 0.955976 -0.054728
  H 3.879359 0.871981 1.303958
  H 3.879362 -0.885370 1.204797
  H 1.968267 -0.979004 2.790592
  H 1.968255 0.786618 2.890227
  H 2.764410 -0.643526 -3.040764
  H 2.764413 1.109276 -2.941858
  H 0.377662 1.079291 -2.266135
  H 0.377662 -0.689744 -2.365957
  H 0.994747 1.211359 -4.669093
  H -0.504601 0.314312 -4.434527
  H 0.994751 -0.550664 -4.768523
 24
 12.369763
  C 0.829159 0.044478 0.347471
  C 2.308587 0.057543 0.115886
  C 3.253609 -0.008784 1.291414
  C 2.554128 -0.096037 2.837653
  H 3.351027 -0.137370 3.570201
  C 2.918049 0.129585 -1.160828
  C 2.361068 0.207974 -2.550054
  C 0.854062 0.221231 -2.784952
  C 0.550447 0.305491 -4.278204
  H 4.000806 0.130239 -1.172414
  H 0.591032 -0.015129 1.403787
  H 0.368248 -0.814423 -0.135264
  H 0.368251 0.952235 -0.035575
  H 3.895806 0.872642 1.284547
  H 3.895806 -0.883837 1.185435
  H 1.945574 -0.989301 2.923042
  H 1.945567 0.781946 3.022992
  H 2.778615 -0.638939 -3.109400
  H 2.778618 1.112437 -3.010574
  H 0.401455 1.080165 -2.290136
  H 0.401454 -0.687917 -2.389904
  H 0.970233 1.213372 -4.706896
  H -0.524429 0.314968 -4.446147
  H 0.970234 -0.548407 -4.806309
 24
 36.986563
  C 0.865020 0.044180 0.352670
  C 2.323110 0.058919 0.091416
  C 3.289295 -0.004072 1.207887
  C 2.483247 -0.104209 2.982427
  H 3.319965 -0.141578 3.644898
  C 2.923276 0.131709 -1.198594
  C 2.367301 0.209923 -2.584681
  C 0.856138 0.222298 -2.803911
  C 0.534067 0.306269 -4.292102
  H 3.999286 0.130742 -1.181480
  H 0.673089 -0.016242 1.423529
  H 0.390812 -0.812238 -0.123509
  H 0.390814 0.948736 -0.024148
  H 3.916023 0.881731 1.246426
  H 3.916052 -0.888595 1.146567
  H 1.895483 -1.013757 3.007858
  H 1.895455 0.796698 3.110011
  H 2.785232 -0.635517 -3.147169
  H 2.785256 1.113312 -3.048515
  H 0.413870 1.081356 -2.298543
  H 0.413908 -0.688079 -2.398428
  H 0.950076 1.213944 -4.724480
  H -0.541877 0.315160 -4.449664
  H 0.950085 -0.547029 -4.823858
 24
 63.467063
  C 0.884858 0.047224 0.298832
  C 2.359716 0.062579 0.026658
  C 3.349923 -0.000870 1.151096
  C 2.416683 -0.114795 3.169805
  H 3.299559 -0.150050 3.794639
  C 2.943638 0.134864 -1.254379
  C 2.370061 0.212078 -2.622754
  C 0.861935 0.222623 -2.809591
  C 0.509154 0.306230 -4.291301
  H 4.020980 0.134863 -1.254337
  H 0.707091 -0.012888 1.364050
  H 0.404966 -0.811522 -0.176522
  H 0.404970 0.953996 -0.076892
  H 3.960378 0.900497 1.247889
  H 3.960355 -0.907361 1.145880
  H 1.846793 -1.031865 3.141644
  H 1.846754 0.799661 3.245006
  H 2.778620 -0.629410 -3.190454
  H 2.778609 1.112059 -3.092172
  H 0.427557 1.081860 -2.295442
  H 0.427569 -0.688976 -2.395377
  H 0.915759 1.214598 -4.732386
  H -0.569704 0.313870 -4.426677
  H 0.915766 -0.546769 -4.831786
 24
 85.644839
  C 0.959238 0.048207 0.281519
  C 2.423427 0.065847 -0.031007
  C 3.412483 0.003240 1.078375
  C 2.326103 -0.125112 3.352177
  H 3.215959 -0.158438 3.942659
  C 2.970359 0.136843 -1.289119
  C 2.364533 0.214939 -2.673281
  C 0.852144 0.224075 -2.835063
  C 0.473767 0.307320 -4.310976
  H 4.050323 0.138369 -1.315996
  H 0.815626 -0.012871 1.363677
  H 0.471774 -0.806753 -0.178166
  H 0.471766 0.949467 -0.079046
  H 3.997388 0.904039 1.234911
  H 3.997385 -0.909437 1.132581
  H 1.761616 -1.056291 3.279749
  H 1.761544 0.808378 3.384999
  H 2.762868 -0.626804 -3.245396
  H 2.762847 1.115699 -3.147082
  H 0.426293 1.081704 -2.313201
  H 0.426227 -0.686700 -2.413064
  H 0.871450 1.215488 -4.758911
  H -0.606503 0.313921 -4.427492
  H 0.871452 -0.544845 -4.858225
 24
 100.994839
  C 1.022916 0.049027 0.266866
  C 2.486923 0.069165 -0.089870
  C 3.459607 0.007276 1.007149
  C 2.215751 -0.133546 3.502155
  H 3.127557 -0.165699 4.072182
  C 3.007422 0.140301 -1.350696
  C 2.374603 0.217453 -2.718295
  C 0.859208 0.224230 -2.838167
  C 0.439523 0.306780 -4.301406
  H 4.073081 0.143981 -1.415868
  H 0.914759 -0.012225 1.352361
  H 0.523107 -0.811204 -0.180379
  H 0.523098 0.954104 -0.080766
  H 4.018258 0.907275 1.223503
  H 4.018284 -0.911358 1.120921
  H 1.678473 -1.037990 3.388570
  H 1.678451 0.777901 3.491051
  H 2.759744 -0.622742 -3.297039
  H 2.759758 1.117449 -3.198905
  H 0.449272 1.077527 -2.304679
  H 0.449264 -0.683629 -2.404025
  H 0.823441 1.216201 -4.760381
  H -0.644852 0.311642 -4.387531
  H 0.823375 -0.545162 -4.859654
 24
 111.079335
  C 1.076593 0.049156 0.267434
  C 2.522552 0.072404 -0.146826
  C 3.522817 0.011228 0.937667
  C 2.144653 -0.143447 3.675701
  H 3.057253 -0.173531 4.210103
  C 3.003073 0.143287 -1.404771
  C 2.356812 0.218872 -2.744489
  C 0.842668 0.225492 -2.862140
  C 0.426746 0.308098 -4.323779
  H 4.093703 0.148346 -1.495607
  H 1.019011 -0.012179 1.356024
  H 0.562760 -0.810907 -0.155689
  H 0.562901 0.951407 -0.056412
  H 4.053861 0.899536 1.194852
  H 4.053758 -0.900277 1.093845
  H 1.606992 -1.062808 3.533980
  H 1.606843 0.785899 3.638357
  H 2.740353 -0.626357 -3.329220
  H 2.740555 1.124512 -3.230530
  H 0.430694 1.082671 -2.329068
  H 0.431379 -0.686328 -2.428601
  H 0.811147 1.216778 -4.781265
  H -0.656206 0.312935 -4.411707
  H 0.811390 -0.543090 -4.881059
 24
 116.949308
  C 1.172035 0.051119 0.234690
  C 2.607878 0.075728 -0.203696
  C 3.590634 0.014719 0.878178
  C 1.995941 -0.151272 3.811573
  H 2.941131 -0.182010 4.356808
  C 3.060623 0.146370 -1.457684
  C 2.370036 0.221555 -2.791096
  C 0.847166 0.224643 -2.847062
  C 0.366397 0.306351 -4.295345
  H 4.140708 0.153328 -1.581978
  H 1.129153 -0.010837 1.334532
  H 0.656557 -0.808299 -0.182235
  H 0.656714 0.952022 -0.083097
  H 4.097123 0.911086 1.183360
  H 4.096742 -0.910459 1.081528
  H 1.473708 -1.064977 3.628252
  H 1.473477 0.777205 3.732482
  H 2.734519 -0.627486 -3.390563
  H 2.734624 1.132601 -3.291337
  H 0.456299 1.077680 -2.298421
  H 0.456622 -0.684772 -2.397736
  H 0.728921 1.217155 -4.769847
  H -0.721863 0.308610 -4.336965
  H 0.728983 -0.545010 -4.869382
 24
 120.183174
  C 1.212413 0.050926 0.237900
  C 2.657452 0.078297 -0.248311
  C 3.648994 0.018523 0.811317
  C 1.905813 -0.160123 3.967492
  H 2.848326 -0.188108 4.462178
  C 3.077972 0.149205 -1.506415
  C 2.364516 0.223340 -2.821955
  C 0.852320 0.224951 -2.851976
  C 0.349550 0.305782 -4.285372
  H 4.146394 0.157616 -1.655913
  H 1.196537 -0.009410 1.308283
  H 0.685522 -0.808835 -0.161147
  H 0.685655 0.950136 -0.061993
  H 4.131455 0.912742 1.139965
  H 4.130485 -0.907138 1.038500
  H 1.392544 -1.080518 3.751988
  H 1.392393 0.778735 3.857392
  H 2.717770 -0.621467 -3.424410
  H 2.717628 1.130378 -3.325531
  H 0.472979 1.069890 -2.300966
  H 0.473130 -0.676743 -2.399373
  H 0.702150 1.213989 -4.764534
  H -0.734825 0.307000 -4.308481
  H 0.702246 -0.542633 -4.863566
 24
 121.630622
  C 1.288255 0.051402 0.224752
  C 2.732246 0.080787 -0.292273
  C 3.735111 0.020997 0.766937
  C 1.771955 -0.167556 4.101477
  H 2.708463 -0.194502 4.574887
  C 3.125491 0.152158 -1.555211
  C 2.376565 0.225702 -2.860201
  C 0.841176 0.224887 -2.848213
  C 0.292578 0.305162 -4.277248
  H 4.200080 0.161978 -1.727041
  H 1.290882 -0.010725 1.323628
  H 0.747193 -0.820761 -0.168753
  H 0.747096 0.962331 -0.067929
  H 4.198965 0.923193 1.125381
  H 4.197362 -0.916207 1.023001
  H 1.277619 -1.076914 3.854988
  H 1.277804 0.763796 3.959574
  H 2.715783 -0.611878 -3.467719
  H 2.715363 1.126405 -3.369537
  H 0.466838 1.094572 -2.269275
  H 0.465833 -0.703988 -2.371339
  H 0.631780 1.219394 -4.770223
  H -0.798331 0.304838 -4.269256
  H 0.631742 -0.548575 -4.869365
 24
 122.129628
  C 1.411539 0.050993 0.222547
  C 2.808527 0.083451 -0.343599
  C 3.832925 0.024144 0.706256
  C 1.575217 -0.171391 4.176390
  H 2.525424 -0.198398 4.648316
  C 3.151457 0.155273 -1.610643
  C 2.358798 0.227474 -2.890728
  C 0.834759 0.223442 -2.823307
  C 0.245873 0.301480 -4.208374
  H 4.213545 0.167217 -1.817317
  H 1.460239 -0.010289 1.303306
  H 0.867669 -0.807916 -0.142002
  H 0.867403 0.945478 -0.042529
  H 4.272341 0.918133 1.087336
  H 4.269702 -0.907258 0.986201
  H 1.097490 -1.079798 3.893080
  H 1.097883 0.763407 3.997830
  H 2.675496 -0.599895 -3.504049
  H 2.674992 1.119244 -3.407089
  H 0.481190 1.087292 -2.236013
  H 0.480900 -0.700821 -2.337404
  H 0.562571 1.206419 -4.705891
  H -0.831620 0.298771 -4.161168
  H 0.562987 -0.542336 -4.804395
 24
 122.059261
  C 1.506557 0.048374 0.255475
  C 2.879545 0.084051 -0.358378
  C 3.945912 0.026550 0.657553
  C 1.397097 -0.173688 4.231709
  H 2.343207 -0.201060 4.708212
  C 3.181384 0.157488 -1.646526
  C 2.351845 0.227836 -2.892246
  C 0.830557 0.220845 -2.781336
  C 0.179113 0.300411 -4.184947
  H 4.231380 0.171522 -1.884343
  H 1.595349 -0.012879 1.330252
  H 0.948697 -0.819797 -0.091598
  H 0.948253 0.950014 0.009381
  H 4.375062 0.922491 1.051409
  H 4.371440 -0.908927 0.951471
  H 0.925747 -1.085537 3.928828
  H 0.926394 0.766913 4.033913
  H 2.658689 -0.624842 -3.532507
  H 2.657743 1.147622 -3.431577
  H 0.503600 1.058556 -2.197776
  H 0.504396 -0.678315 -2.296132
  H 0.482079 1.221560 -4.702311
  H -0.918278 0.295291 -4.104496
  H 0.482721 -0.555316 -4.802914
 24
 121.872322
  C 1.607444 0.045387 0.290632
  C 2.963856 0.084828 -0.380442
  C 4.052850 0.030466 0.576150
  C 1.177082 -0.172996 4.236815
  H 2.136133 -0.201636 4.732758
  C 3.222316 0.159029 -1.673055
  C 2.344887 0.228787 -2.904010
  C 0.819953 0.218448 -2.741207
  C 0.125782 0.296780 -4.116118
  H 4.272550 0.175273 -1.944621
  H 1.735285 -0.016499 1.369659
  H 1.039952 -0.819956 -0.033338
  H 1.039458 0.941791 0.067831
  H 4.479165 0.930084 0.974970
  H 4.472885 -0.908831 0.876821
  H 0.714323 -1.082007 3.920448
  H 0.715481 0.766319 4.025075
  H 2.631090 -0.622762 -3.554957
  H 2.629745 1.148992 -3.453194
  H 0.503724 1.073224 -2.133195
  H 0.505316 -0.700357 -2.234815
  H 0.402759 1.198037 -4.631756
  H -0.944320 0.289496 -4.003011
  H 0.403799 -0.538852 -4.731152
