 23
 0.000000
  C 0.986295 0.163703 0.459969
  C 2.446640 0.126186 0.365646
  H 3.054101 0.459196 1.193512
  C 3.026640 -0.339026 -0.792216
  C 4.405513 -0.418789 -0.991684
  C 5.109942 -0.867291 -2.110105
  C 4.624533 -1.389835 -3.413297
  C 3.137109 -1.511766 -3.718455
  C 2.937953 -2.075186 -5.123454
  O 6.424577 -0.854012 -2.077110
  H 0.631862 0.544461 1.407277
  H 0.576481 -0.837132 0.309114
  H 0.575887 0.781367 -0.341560
  H 2.337747 -0.646963 -1.558069
  H 5.013152 -0.083525 -0.157100
  H 5.089746 -2.375021 -3.536515
  H 5.090381 -0.763209 -4.183081
  H 2.658397 -0.533389 -3.670868
  H 2.657924 -2.185922 -3.008176
  H 3.385022 -1.425587 -5.872154
  H 1.877667 -2.163910 -5.345449
  H 3.384630 -3.062325 -5.215742
  H 6.806008 -0.520260 -1.242511
 23
 4.842311
  C 0.980915 0.073114 0.406532
  C 2.446819 0.144394 0.332920
  H 2.991840 0.589992 1.149771
  C 3.052691 -0.345206 -0.808313
  C 4.423191 -0.441204 -0.995202
  C 5.140634 -0.891690 -2.110508
  C 4.640120 -1.397626 -3.412543
  C 3.148245 -1.474879 -3.700449
  C 2.916058 -2.026352 -5.105147
  O 6.450434 -0.885965 -2.070350
  H 0.670724 0.718405 1.210286
  H 0.632311 -0.942188 0.573104
  H 0.525605 0.471470 -0.499841
  H 2.246833 -0.597542 -1.468511
  H 5.017848 -0.125798 -0.142817
  H 5.089878 -2.389985 -3.544083
  H 5.127465 -0.786886 -4.182743
  H 2.704518 -0.481532 -3.641228
  H 2.659939 -2.134659 -2.983392
  H 3.368800 -1.384852 -5.857475
  H 1.850175 -2.078269 -5.315055
  H 3.324456 -3.028740 -5.207401
  H 6.842534 -0.559047 -1.241554
 23
 17.813181
  C 0.968878 -0.027712 0.305867
  C 2.442473 0.184793 0.295118
  H 2.893054 0.758997 1.089834
  C 3.109542 -0.360238 -0.799124
  C 4.477978 -0.457005 -0.989818
  C 5.178294 -0.913033 -2.108962
  C 4.644239 -1.400724 -3.404150
  C 3.142915 -1.441270 -3.647990
  C 2.864310 -1.975913 -5.050253
  O 6.487374 -0.925910 -2.085125
  H 0.677507 0.726241 1.007110
  H 0.674671 -1.028473 0.597666
  H 0.505556 0.278694 -0.629083
  H 2.215989 -0.592417 -1.341527
  H 5.076046 -0.158250 -0.135339
  H 5.076638 -2.396860 -3.553224
  H 5.121948 -0.784358 -4.174959
  H 2.727354 -0.438113 -3.567219
  H 2.669521 -2.105656 -2.926548
  H 3.325700 -1.332417 -5.797943
  H 1.797259 -1.999602 -5.252704
  H 3.279110 -2.971395 -5.182045
  H 6.896870 -0.611622 -1.256503
 23
 21.311375
  C 0.998883 -0.088238 0.423894
  C 2.408619 0.334087 0.179860
  H 2.764788 1.189341 0.686994
  C 3.127771 -0.415393 -0.758292
  C 4.479826 -0.552361 -0.956942
  C 5.171566 -1.002018 -2.075774
  C 4.650571 -1.405285 -3.402261
  C 3.159951 -1.404069 -3.666091
  C 2.887622 -1.851233 -5.098695
  O 6.483376 -1.019612 -2.056748
  H 0.459012 0.803257 0.671801
  H 0.922990 -0.818876 1.228842
  H 0.476909 -0.445191 -0.461889
  H 2.237346 -0.718520 -1.311109
  H 5.079787 -0.293548 -0.085763
  H 5.064356 -2.402129 -3.586357
  H 5.153336 -0.762560 -4.127267
  H 2.727332 -0.409291 -3.564404
  H 2.623982 -2.099350 -3.013580
  H 3.367267 -1.175961 -5.801485
  H 1.823906 -1.840878 -5.308592
  H 3.281834 -2.847862 -5.283708
  H 6.885728 -0.741913 -1.227877
 23
 39.968180
  C 0.980898 -0.197131 0.348676
  C 2.315474 0.355660 -0.044741
  H 2.457366 1.398699 0.173590
  C 3.244621 -0.429214 -0.699101
  C 4.587678 -0.621897 -0.919195
  C 5.251797 -1.026391 -2.057886
  C 4.686524 -1.343848 -3.404734
  C 3.171417 -1.352448 -3.578061
  C 2.800376 -1.723282 -5.013440
  O 6.565785 -1.137126 -2.047580
  H 0.258907 0.606981 0.354023
  H 1.046851 -0.650260 1.337804
  H 0.564376 -0.933501 -0.341388
  H 2.291158 -0.587083 -1.293807
  H 5.191462 -0.443777 -0.035173
  H 5.082018 -2.331809 -3.661943
  H 5.130611 -0.651825 -4.115747
  H 2.769892 -0.362223 -3.362705
  H 2.727655 -2.096118 -2.908050
  H 3.209344 -0.999029 -5.720665
  H 1.722254 -1.735634 -5.135641
  H 3.178994 -2.705979 -5.271899
  H 6.972069 -0.991054 -1.177195
 23
 56.356999
  C 0.980459 -0.380555 0.327894
  C 2.222770 0.284737 -0.262865
  H 2.162841 1.367450 -0.219652
  C 3.356206 -0.324114 -0.703979
  C 4.658548 -0.565250 -0.937693
  C 5.309122 -1.066617 -2.049807
  C 4.713675 -1.398288 -3.382547
  C 3.208017 -1.218011 -3.536069
  C 2.760606 -1.603642 -4.935017
  O 6.631725 -1.254053 -2.037402
  H 0.156884 0.317705 0.257781
  H 1.153047 -0.645736 1.370159
  H 0.654556 -1.283707 -0.188433
  H 2.086385 -0.380644 -1.232930
  H 5.266306 -0.378092 -0.051254
  H 4.980197 -2.438498 -3.598830
  H 5.238329 -0.795466 -4.136492
  H 2.945099 -0.170724 -3.363619
  H 2.693183 -1.858335 -2.820208
  H 3.252637 -0.988878 -5.679501
  H 1.687232 -1.470816 -5.044573
  H 2.999666 -2.647741 -5.145167
  H 7.047786 -1.039624 -1.181079
 23
 61.443627
  C 0.994248 -0.423898 0.299419
  C 2.229706 0.286893 -0.360012
  H 2.126814 1.373572 -0.340814
  C 3.370322 -0.318747 -0.736035
  C 4.660674 -0.552036 -0.942466
  C 5.328594 -1.040617 -2.053965
  C 4.731299 -1.374762 -3.389274
  C 3.231284 -1.190212 -3.518358
  C 2.750336 -1.570943 -4.912817
  O 6.662714 -1.292672 -2.017650
  H 0.150031 0.253109 0.240481
  H 1.255606 -0.594305 1.335144
  H 0.660301 -1.391658 -0.107615
  H 1.764487 -0.363230 -1.179639
  H 5.243182 -0.441964 -0.029274
  H 5.000734 -2.409091 -3.606326
  H 5.240618 -0.766210 -4.149578
  H 2.999411 -0.147361 -3.322806
  H 2.721424 -1.831016 -2.807243
  H 3.228550 -0.962444 -5.662666
  H 1.689187 -1.431674 -5.004939
  H 2.981369 -2.609445 -5.127107
  H 7.047718 -1.110710 -1.156714
 23
 66.779265
  C 0.907184 -0.435690 0.195510
  C 2.308089 0.279261 -0.316293
  H 2.246035 1.347822 -0.145393
  C 3.393591 -0.320069 -0.765289
  C 4.711148 -0.554968 -0.949770
  C 5.361115 -1.036084 -2.073174
  C 4.741476 -1.387647 -3.385824
  C 3.234727 -1.194296 -3.495620
  C 2.735758 -1.600281 -4.879411
  O 6.693055 -1.231250 -2.075791
  H 0.146976 0.346614 0.205431
  H 1.150678 -0.742661 1.211763
  H 0.470056 -1.320932 -0.279660
  H 1.536547 -0.266532 -0.988017
  H 5.312401 -0.418815 -0.052679
  H 4.995994 -2.433482 -3.589680
  H 5.248383 -0.803126 -4.161383
  H 2.993138 -0.144448 -3.326683
  H 2.739216 -1.815887 -2.749059
  H 3.206183 -0.996488 -5.652339
  H 1.659741 -1.466321 -4.956054
  H 2.963969 -2.644365 -5.080858
  H 7.108130 -1.022725 -1.223272
