 19
 0.000000
  C 0.969100 0.184873 0.511727
  C 2.415635 0.113655 0.334588
  H 3.055726 0.438862 1.143964
  C 2.992351 -0.351806 -0.824382
  C 4.383474 -0.423104 -1.002698
  C 5.079106 -0.865268 -2.105511
  C 4.653625 -1.386071 -3.404167
  C 3.185553 -1.529172 -3.760936
  H 3.100939 -1.932091 -4.765907
  H 6.158046 -0.828965 -2.015415
  H 0.685803 0.575076 1.482948
  H 0.523780 -0.803883 0.375553
  H 0.523791 0.804670 -0.270641
  H 2.341947 -0.672140 -1.621890
  H 4.988729 -0.088512 -0.169145
  H 5.151247 -2.360490 -3.518679
  H 5.151298 -0.760844 -4.160175
  H 2.679957 -0.566829 -3.745130
  H 2.680040 -2.214102 -3.084675
 19
 4.448228
  C 0.980421 0.220322 0.600286
  C 2.422173 0.119852 0.349920
  H 3.103279 0.434556 1.134037
  C 2.944310 -0.358534 -0.842237
  C 4.312590 -0.450637 -1.071807
  C 5.083709 -0.874583 -2.129062
  C 4.705542 -1.401755 -3.443313
  C 3.242973 -1.553393 -3.820978
  H 3.170155 -1.957289 -4.827878
  H 6.155860 -0.812308 -1.973848
  H 0.754463 0.615885 1.585937
  H 0.505706 -0.758440 0.478461
  H 0.505810 0.843368 -0.164378
  H 2.239812 -0.663943 -1.603351
  H 4.709444 -0.080275 -0.148380
  H 5.220324 -2.370030 -3.552825
  H 5.220403 -0.777759 -4.191727
  H 2.733238 -0.593677 -3.811288
  H 2.733456 -2.240484 -3.150720
 19
 14.466241
  C 1.008825 0.225758 0.613020
  C 2.438450 0.114551 0.339590
  H 3.126489 0.423906 1.120546
  C 2.926706 -0.361143 -0.853947
  C 4.287677 -0.468836 -1.119268
  C 5.093390 -0.877946 -2.140914
  C 4.728823 -1.404923 -3.451750
  C 3.269033 -1.551125 -3.810602
  H 3.179039 -1.954222 -4.812615
  H 6.158499 -0.805059 -1.961270
  H 0.804237 0.617874 1.599104
  H 0.524177 -0.746428 0.495391
  H 0.527510 0.854065 -0.140281
  H 2.169430 -0.649684 -1.580821
  H 4.505874 -0.086489 -0.161783
  H 5.243213 -2.371566 -3.563292
  H 5.241284 -0.783217 -4.201476
  H 2.764975 -0.590405 -3.789477
  H 2.767224 -2.230824 -3.129712
 19
 28.330571
  C 1.017329 0.233936 0.633167
  C 2.445606 0.119415 0.353579
  H 3.131489 0.427194 1.138337
  C 2.923640 -0.355756 -0.845804
  C 4.284499 -0.479732 -1.147716
  C 5.109907 -0.881979 -2.153520
  C 4.752210 -1.410229 -3.464656
  C 3.284030 -1.555969 -3.818755
  H 3.185394 -1.960449 -4.821449
  H 6.174758 -0.803309 -1.961826
  H 0.818353 0.625777 1.626318
  H 0.528607 -0.737774 0.515727
  H 0.533995 0.867461 -0.116383
  H 2.136048 -0.633538 -1.553906
  H 4.353612 -0.090298 -0.168639
  H 5.267554 -2.376290 -3.576318
  H 5.264330 -0.788612 -4.214913
  H 2.781248 -0.594628 -3.793214
  H 2.784507 -2.232525 -3.132766
 19
 43.805116
  C 1.018939 0.231654 0.626058
  C 2.450348 0.119812 0.360819
  H 3.117385 0.422251 1.155870
  C 2.937132 -0.347012 -0.840122
  C 4.312156 -0.485180 -1.165013
  C 5.142223 -0.883138 -2.164841
  C 4.766526 -1.413338 -3.471114
  C 3.280204 -1.548992 -3.788999
  H 3.149642 -1.952032 -4.784005
  H 6.204129 -0.804373 -1.981372
  H 0.809668 0.617384 1.625670
  H 0.530558 -0.743374 0.496154
  H 0.541631 0.874612 -0.125344
  H 2.139491 -0.610311 -1.535256
  H 4.250025 -0.101786 -0.189231
  H 5.275809 -2.382590 -3.593497
  H 5.268656 -0.794152 -4.231865
  H 2.788713 -0.590907 -3.749844
  H 2.795309 -2.214993 -3.093271
 19
 55.343498
  C 1.007602 0.238652 0.617409
  C 2.454822 0.114299 0.397930
  H 3.083458 0.364330 1.243113
  C 2.969000 -0.286731 -0.796384
  C 4.333566 -0.486378 -1.190363
  C 5.133345 -0.858434 -2.162811
  C 4.766450 -1.430487 -3.495132
  C 3.284084 -1.588617 -3.780999
  H 3.151308 -1.994607 -4.784442
  H 6.207424 -0.757502 -2.007163
  H 0.779953 0.565297 1.620628
  H 0.512805 -0.710711 0.429041
  H 0.571452 0.937944 -0.089959
  H 2.189598 -0.499049 -1.539238
  H 4.213951 -0.122760 -0.178105
  H 5.279777 -2.386656 -3.622874
  H 5.233400 -0.777749 -4.239137
  H 2.774738 -0.626800 -3.733349
  H 2.815497 -2.278959 -3.080030
 19
 60.174520
  C 0.983931 0.232454 0.599760
  C 2.448683 0.107152 0.434514
  H 3.027975 0.319674 1.317585
  C 3.005249 -0.240356 -0.744762
  C 4.368836 -0.485832 -1.212792
  C 5.149077 -0.847781 -2.184471
  C 4.770414 -1.440677 -3.522986
  C 3.279991 -1.598775 -3.752321
  H 3.117370 -2.022659 -4.741379
  H 6.221745 -0.745582 -2.067918
  H 0.723808 0.517518 1.621976
  H 0.487413 -0.707265 0.362142
  H 0.584370 0.981562 -0.080898
  H 2.262719 -0.404180 -1.540160
  H 4.207217 -0.131444 -0.178896
  H 5.278673 -2.401125 -3.620649
  H 5.204392 -0.785238 -4.282574
  H 2.774474 -0.640843 -3.717155
  H 2.839288 -2.274450 -3.026098
 19
 65.018463
  C 0.972483 0.237431 0.609233
  C 2.439902 0.094739 0.465264
  H 3.016829 0.255007 1.372984
  C 3.011810 -0.201172 -0.718642
  C 4.379614 -0.478026 -1.226076
  C 5.153819 -0.833980 -2.199862
  C 4.772756 -1.445369 -3.527634
  C 3.277852 -1.623128 -3.748418
  H 3.114478 -2.066019 -4.727625
  H 6.228807 -0.718804 -2.094231
  H 0.703659 0.468040 1.622432
  H 0.465228 -0.676464 0.314766
  H 0.599563 1.028092 -0.033722
  H 2.288378 -0.305133 -1.555661
  H 4.167370 -0.130150 -0.188403
  H 5.294012 -2.411749 -3.606138
  H 5.197681 -0.792464 -4.302429
  H 2.763410 -0.666399 -3.733510
  H 2.845159 -2.289473 -3.006343
 19
 69.151598
  C 0.967701 0.238615 0.608466
  C 2.429059 0.074754 0.482936
  H 2.994812 0.172887 1.401597
  C 3.016103 -0.167415 -0.708731
  C 4.392286 -0.465246 -1.236068
  C 5.160098 -0.820798 -2.214909
  C 4.768665 -1.453705 -3.532620
  C 3.281277 -1.640651 -3.732115
  H 3.108078 -2.103985 -4.699439
  H 6.242014 -0.692789 -2.118638
  H 0.678507 0.419939 1.649485
  H 0.448281 -0.648777 0.250258
  H 0.622346 1.073925 0.002253
  H 2.314132 -0.209083 -1.564496
  H 4.127991 -0.113710 -0.201016
  H 5.289246 -2.416862 -3.598792
  H 5.176083 -0.814953 -4.321475
  H 2.765716 -0.689963 -3.730455
  H 2.862752 -2.289698 -2.971908
 19
 72.519359
  C 0.960970 0.239622 0.598499
  C 2.424916 0.046558 0.493556
  H 2.976965 0.070680 1.425936
  C 3.032118 -0.133787 -0.700274
  C 4.410323 -0.450331 -1.240438
  C 5.166551 -0.803697 -2.229201
  C 4.762897 -1.457145 -3.528562
  C 3.272016 -1.662992 -3.705745
  H 3.090801 -2.146212 -4.662200
  H 6.245805 -0.663254 -2.150049
  H 0.654393 0.358683 1.633427
  H 0.429038 -0.607315 0.170759
  H 0.649137 1.120151 0.041386
  H 2.355249 -0.101242 -1.571601
  H 4.102126 -0.095982 -0.202155
  H 5.290689 -2.415341 -3.586012
  H 5.153168 -0.826044 -4.333163
  H 2.744415 -0.713596 -3.715245
  H 2.868297 -2.302587 -2.924773
 19
 74.755983
  C 0.956586 0.245009 0.585548
  C 2.414415 0.006779 0.497677
  H 2.950465 -0.070757 1.447306
  C 3.043841 -0.093619 -0.698176
  C 4.419439 -0.431385 -1.251502
  C 5.167801 -0.780822 -2.248184
  C 4.754952 -1.461497 -3.525623
  C 3.265522 -1.693053 -3.673409
  H 3.075201 -2.200663 -4.616702
  H 6.254510 -0.621649 -2.186785
  H 0.625801 0.285841 1.624483
  H 0.404985 -0.542354 0.070871
  H 0.689545 1.183846 0.098465
  H 2.395012 0.031243 -1.572033
  H 4.076618 -0.075559 -0.202560
  H 5.296790 -2.412208 -3.574097
  H 5.120967 -0.841130 -4.345521
  H 2.724311 -0.754015 -3.694655
  H 2.885171 -2.318251 -2.872060
 19
 76.174258
  C 0.949475 0.255732 0.593414
  C 2.400031 -0.028251 0.506499
  H 2.915078 -0.200664 1.440049
  C 3.046338 -0.054830 -0.691982
  C 4.412031 -0.418986 -1.270167
  C 5.165945 -0.764727 -2.262220
  C 4.756806 -1.472535 -3.527577
  C 3.266448 -1.730333 -3.659982
  H 3.076309 -2.253444 -4.590094
  H 6.246987 -0.586488 -2.207435
  H 0.604389 0.227144 1.620817
  H 0.379860 -0.463079 0.010474
  H 0.724376 1.236812 0.180091
  H 2.421151 0.166728 -1.563903
  H 4.050104 -0.047692 -0.196147
  H 5.313649 -2.413347 -3.567443
  H 5.107529 -0.854141 -4.361944
  H 2.707125 -0.797579 -3.688534
  H 2.902624 -2.350774 -2.843491
 19
 75.246857
  C 0.949883 0.260609 0.613339
  C 2.386062 -0.069986 0.508733
  H 2.891483 -0.361530 1.420948
  C 3.046100 0.008453 -0.691238
  C 4.362722 -0.390100 -1.313078
  C 5.147125 -0.742265 -2.276109
  C 4.760590 -1.494859 -3.523993
  C 3.274858 -1.765739 -3.659324
  H 3.092099 -2.329093 -4.576847
  H 6.213709 -0.547773 -2.211349
  H 0.589548 0.135340 1.629856
  H 0.359601 -0.368674 -0.052278
  H 0.766425 1.287840 0.305036
  H 2.446724 0.333686 -1.538887
  H 4.021584 0.022927 -0.202000
  H 5.323967 -2.437006 -3.526405
  H 5.115816 -0.902999 -4.373331
  H 2.713927 -0.839538 -3.724503
  H 2.907050 -2.354300 -2.820170
 19
 72.565581
  C 0.954773 0.261252 0.649894
  C 2.373865 -0.105929 0.508527
  H 2.871699 -0.509524 1.377242
  C 3.040501 0.079150 -0.691475
  C 4.303182 -0.361985 -1.358649
  C 5.125132 -0.732359 -2.280113
  C 4.770141 -1.524472 -3.516555
  C 3.286636 -1.802563 -3.673558
  H 3.120764 -2.395115 -4.572985
  H 6.189427 -0.526859 -2.194070
  H 0.587039 0.041020 1.644887
  H 0.345068 -0.269787 -0.083589
  H 0.805491 1.325110 0.449693
  H 2.453123 0.495086 -1.514985
  H 3.994721 0.110113 -0.198098
  H 5.329522 -2.460360 -3.478632
  H 5.140500 -0.959642 -4.372872
  H 2.726616 -0.878124 -3.776058
  H 2.904068 -2.360310 -2.822598
