 23
 0.000000
  C 0.997336 0.163435 0.457619
  C 2.459547 0.126079 0.364276
  H 3.048500 0.463631 1.204244
  C 3.051322 -0.337504 -0.789710
  C 4.430179 -0.416724 -0.987607
  C 5.117742 -0.869723 -2.116928
  C 4.614127 -1.390375 -3.414537
  C 3.125693 -1.510863 -3.715590
  C 2.927576 -2.074787 -5.120851
  O 6.431506 -0.864064 -2.103279
  H 0.647637 0.546670 1.411784
  H 0.585374 -0.836239 0.305544
  H 0.585086 0.780086 -0.343639
  H 2.389466 -0.654339 -1.577986
  H 5.046642 -0.083927 -0.159073
  H 5.077098 -2.376379 -3.540847
  H 5.077622 -0.765555 -4.187401
  H 2.647181 -0.532279 -3.669601
  H 2.646841 -2.186002 -3.005987
  H 3.375186 -1.425295 -5.869295
  H 1.867633 -2.164211 -5.344235
  H 3.374935 -3.061642 -5.212589
  H 6.833784 -0.533153 -1.277405
 23
 -0.170122
  C 0.999091 0.259917 0.531312
  C 2.438361 0.185190 0.300724
  H 3.095388 0.677710 1.004839
  C 2.985583 -0.446469 -0.794827
  C 4.365330 -0.516799 -0.981678
  C 5.083943 -0.978752 -2.085785
  C 4.604151 -1.307157 -3.453762
  C 3.145941 -1.673386 -3.714176
  C 2.974114 -2.105248 -5.168852
  O 6.389032 -1.081568 -2.005025
  H 0.756247 0.736188 1.473210
  H 0.553038 -0.734322 0.489109
  H 0.519519 0.813433 -0.278996
  H 2.318168 -0.906318 -1.501700
  H 4.964728 -0.167690 -0.147739
  H 5.251968 -2.110836 -3.821692
  H 4.858094 -0.437696 -4.075484
  H 2.497875 -0.815628 -3.537666
  H 2.845451 -2.498385 -3.067081
  H 3.250705 -1.302789 -5.848447
  H 1.938246 -2.369965 -5.363808
  H 3.590583 -2.972019 -5.394900
  H 6.777475 -0.842801 -1.139223
 23
 2.837160
  C 0.989495 0.299578 0.359242
  C 2.431760 0.296360 0.105240
  H 3.018059 1.115482 0.500175
  C 3.046571 -0.631921 -0.690504
  C 4.434876 -0.641416 -0.909244
  C 5.129511 -1.086039 -2.029723
  C 4.595471 -1.249092 -3.408872
  C 3.179455 -1.779624 -3.617953
  C 2.896297 -1.931566 -5.109439
  O 6.430745 -1.238583 -1.989579
  H 0.711741 1.022705 1.118976
  H 0.642608 -0.696330 0.636588
  H 0.449221 0.549145 -0.557985
  H 2.439384 -1.398181 -1.149081
  H 5.039778 -0.257706 -0.093805
  H 5.310187 -1.877511 -3.947895
  H 4.658790 -0.259345 -3.878424
  H 2.447391 -1.091453 -3.199379
  H 3.073196 -2.752209 -3.136100
  H 2.972538 -0.974526 -5.619671
  H 1.892328 -2.318076 -5.264321
  H 3.597507 -2.622100 -5.572079
  H 6.845290 -1.099368 -1.116404
 23
 9.340952
  C 0.982118 0.283465 0.086595
  C 2.423202 0.328335 -0.198894
  H 2.899958 1.298951 -0.199902
  C 3.138020 -0.757726 -0.582145
  C 4.543928 -0.776206 -0.825113
  C 5.203137 -1.145801 -1.984219
  C 4.594061 -1.147438 -3.341990
  C 3.222090 -1.804873 -3.490166
  C 2.764240 -1.750382 -4.943385
  O 6.494272 -1.381449 -1.996102
  H 0.656038 1.175072 0.615280
  H 0.719014 -0.611312 0.648587
  H 0.416063 0.239205 -0.847540
  H 2.615212 -1.702589 -0.695126
  H 5.163907 -0.486863 0.018043
  H 5.315018 -1.613268 -4.018587
  H 4.503823 -0.101101 -3.657426
  H 2.487132 -1.289604 -2.872709
  H 3.278602 -2.845460 -3.167812
  H 2.660375 -0.722676 -5.281714
  H 1.801301 -2.240816 -5.051452
  H 3.473952 -2.253855 -5.594475
  H 6.939240 -1.346533 -1.128735
 23
 15.790128
  C 0.987134 0.278486 -0.178934
  C 2.432717 0.291956 -0.503295
  H 2.860257 1.242124 -0.785596
  C 3.205142 -0.801531 -0.504998
  C 4.623448 -0.915838 -0.745071
  C 5.250795 -1.139604 -1.958889
  C 4.570743 -1.039516 -3.277657
  C 3.255900 -1.817949 -3.400395
  C 2.647167 -1.634969 -4.781037
  O 6.528620 -1.410681 -2.031020
  H 0.654224 1.260639 0.141424
  H 0.753679 -0.453902 0.588430
  H 0.408358 0.014015 -1.066477
  H 2.751897 -1.747504 -0.202017
  H 5.241362 -0.898218 0.149245
  H 5.276283 -1.370778 -4.044946
  H 4.360073 0.018322 -3.465927
  H 2.544541 -1.471758 -2.646665
  H 3.450127 -2.876417 -3.224876
  H 2.395800 -0.594298 -4.963277
  H 1.738832 -2.223278 -4.870096
  H 3.335704 -1.959961 -5.554849
  H 7.006675 -1.445291 -1.179727
 23
 5.204159
  C 1.014517 0.153450 -0.376689
  C 2.415972 0.095681 -0.817599
  H 2.716683 0.813771 -1.566699
  C 3.351049 -0.729813 -0.257568
  C 4.699860 -0.942674 -0.630236
  C 5.227605 -1.185614 -1.901989
  C 4.542191 -1.019486 -3.213475
  C 3.178532 -1.719634 -3.370522
  C 2.581120 -1.430782 -4.742343
  O 6.482024 -1.543096 -2.029840
  H 0.564453 1.116004 -0.599738
  H 0.912182 -0.072334 0.682652
  H 0.438887 -0.606226 -0.905882
  H 3.072876 -1.238293 0.661786
  H 5.357740 -1.143396 0.206986
  H 5.220709 -1.394663 -3.981540
  H 4.404288 0.052192 -3.376011
  H 2.490141 -1.373836 -2.596291
  H 3.312542 -2.794366 -3.255442
  H 2.353161 -0.378828 -4.852497
  H 1.665034 -1.994110 -4.880387
  H 3.266911 -1.713766 -5.531500
  H 7.008560 -1.546462 -1.207442
 23
 20.646074
  C 1.000163 0.066572 -0.315402
  C 2.407776 0.085792 -0.739615
  H 2.651009 0.757102 -1.546711
  C 3.424997 -0.585457 -0.152528
  C 4.777294 -0.620288 -0.643515
  C 5.085713 -1.282898 -1.836919
  C 4.533565 -1.139810 -3.212482
  C 3.095593 -1.635067 -3.446752
  C 2.653676 -1.336411 -4.870047
  O 6.338119 -1.699373 -1.941227
  H 0.489638 0.987802 -0.583807
  H 0.894200 -0.125200 0.747713
  H 0.487580 -0.752500 -0.827404
  H 3.246651 -1.127153 0.770398
  H 5.560430 -0.430117 0.074925
  H 5.207364 -1.671029 -3.884219
  H 4.579961 -0.073646 -3.448837
  H 2.414587 -1.154385 -2.747910
  H 3.064002 -2.715262 -3.280147
  H 2.681480 -0.267581 -5.070908
  H 1.634884 -1.687418 -5.031533
  H 3.298326 -1.837232 -5.589742
  H 6.846073 -1.756540 -1.108763
 23
 59.737040
  C 1.021879 0.131774 0.115614
  C 2.372229 0.182314 -0.450702
  H 2.627592 1.022763 -1.079017
  C 3.373780 -0.663595 -0.129141
  C 4.732211 -0.456260 -0.636643
  C 4.735735 -1.183985 -1.810030
  C 4.486725 -1.241507 -3.295565
  C 3.052892 -1.574653 -3.719488
  C 2.905496 -1.500517 -5.234958
  O 6.075174 -1.645090 -1.886269
  H 0.550641 1.104418 0.128901
  H 1.013272 -0.311434 1.114933
  H 0.414610 -0.536897 -0.510765
  H 3.233692 -1.426574 0.629667
  H 5.520446 -0.226520 0.054863
  H 5.165669 -1.982903 -3.700025
  H 4.764964 -0.261786 -3.687398
  H 2.360869 -0.865963 -3.266454
  H 2.788233 -2.569671 -3.373345
  H 3.116951 -0.495913 -5.597312
  H 1.889759 -1.763423 -5.532589
  H 3.592137 -2.193419 -5.726320
  H 6.627436 -1.538882 -1.087737
 23
 99.954544
  C 1.063692 -0.043648 0.101529
  C 2.427804 0.146884 -0.403609
  H 2.687388 1.103728 -0.835280
  C 3.376080 -0.814275 -0.293149
  C 4.836290 -0.475059 -0.550199
  C 4.615992 -0.866856 -1.806331
  C 4.427048 -1.114716 -3.252423
  C 2.974887 -1.359776 -3.686484
  C 2.902715 -1.581831 -5.191978
  O 6.204393 -1.294652 -1.998766
  H 0.572683 0.903393 0.298324
  H 1.033304 -0.685078 0.980554
  H 0.485659 -0.566597 -0.668010
  H 3.156371 -1.762738 0.178896
  H 5.474222 -0.480057 0.304270
  H 5.049824 -1.962919 -3.529397
  H 4.827800 -0.243978 -3.777397
  H 2.358097 -0.499429 -3.422985
  H 2.583495 -2.239893 -3.175573
  H 3.279466 -0.715725 -5.730971
  H 1.874710 -1.751477 -5.500697
  H 3.489541 -2.448598 -5.485207
  H 6.808620 -1.245330 -1.242224
 23
 111.249318
  C 1.098935 -0.138841 -0.177534
  C 2.480691 0.073779 -0.583137
  H 2.751342 1.051549 -0.965899
  C 3.462445 -0.880034 -0.503814
  C 4.954645 -0.342035 -0.567915
  C 4.593708 -0.852593 -1.691431
  C 4.354062 -1.088727 -3.087078
  C 2.885881 -1.288357 -3.480683
  C 2.766294 -1.532060 -4.979242
  O 6.714676 -1.393284 -1.837988
  H 0.581338 0.797598 0.003504
  H 1.019489 -0.803121 0.681281
  H 0.578453 -0.652219 -0.991700
  H 3.262580 -1.848142 -0.062912
  H 5.468696 -0.186180 0.349359
  H 4.933847 -1.977505 -3.361938
  H 4.795921 -0.256711 -3.645363
  H 2.317614 -0.394836 -3.218608
  H 2.468884 -2.141037 -2.944425
  H 3.166344 -0.693544 -5.543839
  H 1.723506 -1.660624 -5.257080
  H 3.305430 -2.429097 -5.273655
  H 7.399168 -1.350073 -1.163793
 23
 105.620700
  C 1.197782 -0.115568 -0.202237
  C 2.576459 0.024807 -0.653355
  H 2.884901 0.996063 -1.023059
  C 3.511020 -0.981078 -0.651882
  C 5.117754 -0.394339 -0.739841
  C 4.577101 -0.960352 -1.778430
  C 4.304012 -1.187765 -3.173614
  C 2.817567 -1.317340 -3.524259
  C 2.641029 -1.544724 -5.019628
  O 6.788429 -1.152426 -1.139416
  H 0.739712 0.847325 -0.002606
  H 1.112983 -0.776445 0.658203
  H 0.621652 -0.596080 -0.997276
  H 3.296035 -1.938388 -0.196463
  H 5.538407 -0.041091 0.160647
  H 4.823600 -2.106157 -3.474297
  H 4.777253 -0.378436 -3.739581
  H 2.303035 -0.399098 -3.237258
  H 2.376482 -2.152762 -2.979976
  H 3.062497 -0.723022 -5.592701
  H 1.584915 -1.620876 -5.264577
  H 3.126173 -2.465330 -5.335586
  H 7.330266 -0.982052 -0.366864
 23
 80.977589
  C 1.120691 -0.058030 -0.106864
  C 2.505208 0.002602 -0.610227
  H 2.832605 0.967548 -0.987223
  C 3.334513 -1.050299 -0.712523
  C 5.302438 -0.328772 -0.827960
  C 4.483638 -0.960334 -1.694773
  C 4.290504 -1.252768 -3.101895
  C 2.825580 -1.306990 -3.541866
  C 2.743193 -1.599744 -5.033855
  O 6.614062 -1.006605 -1.234016
  H 0.738165 0.933450 0.113344
  H 1.039820 -0.706848 0.766202
  H 0.479516 -0.503553 -0.874231
  H 3.081703 -2.028023 -0.319086
  H 5.865469 -0.056273 0.032878
  H 4.763915 -2.219718 -3.333041
  H 4.854572 -0.510416 -3.682865
  H 2.359406 -0.341733 -3.334076
  H 2.305807 -2.094067 -2.994751
  H 3.255174 -0.834883 -5.611079
  H 1.706745 -1.624608 -5.354238
  H 3.193058 -2.561064 -5.270151
  H 7.336570 -0.808933 -0.616318
 23
 39.423246
  C 1.090133 0.107953 0.072726
  C 2.465559 0.112708 -0.472031
  H 2.902001 1.078890 -0.695241
  C 3.136919 -0.994714 -0.842687
  C 5.372598 -0.329289 -0.979002
  C 4.347671 -0.956539 -1.653992
  C 4.270567 -1.296358 -3.082488
  C 2.851804 -1.437861 -3.634452
  C 2.872393 -1.781816 -5.113573
  O 6.557570 -0.876957 -1.426287
  H 0.822038 1.080161 0.479892
  H 0.957160 -0.679195 0.810636
  H 0.385005 -0.109249 -0.729648
  H 2.749013 -1.981069 -0.627947
  H 5.639079 -0.238986 0.057355
  H 4.787400 -2.249721 -3.234923
  H 4.851226 -0.557958 -3.645349
  H 2.325246 -0.483532 -3.499497
  H 2.287441 -2.189906 -3.089855
  H 3.408060 -1.029137 -5.681255
  H 1.855709 -1.839857 -5.498802
  H 3.343176 -2.744879 -5.284747
  H 7.347289 -0.582816 -0.934609
 23
 15.136768
  C 1.138545 0.116018 0.300477
  C 2.440337 0.138523 -0.408470
  H 2.831053 1.105071 -0.685908
  C 3.033978 -0.966567 -0.905071
  C 5.367264 -0.410332 -1.039574
  C 4.243756 -0.891794 -1.692507
  C 4.243160 -1.350437 -3.096383
  C 2.864245 -1.403864 -3.752537
  C 2.980760 -1.820063 -5.212632
  O 6.537266 -0.712776 -1.561715
  H 0.865994 1.104313 0.663052
  H 1.166028 -0.585361 1.130889
  H 0.350063 -0.232196 -0.365357
  H 2.594435 -1.932502 -0.676099
  H 5.408460 -0.234933 0.035430
  H 4.693602 -2.345860 -3.155104
  H 4.930402 -0.711562 -3.668505
  H 2.406384 -0.414221 -3.692109
  H 2.222816 -2.114484 -3.227036
  H 3.652908 -1.157135 -5.754368
  H 2.009297 -1.779994 -5.695507
  H 3.360117 -2.834200 -5.300664
  H 7.318014 -0.467821 -1.024046
 23
 14.029269
  C 1.103389 0.175925 0.116565
  C 2.481288 0.035637 -0.410177
  H 3.000501 0.976693 -0.541156
  C 3.100340 -1.095876 -0.796248
  C 5.458632 -0.529957 -0.998558
  C 4.280476 -0.945441 -1.603656
  C 4.230067 -1.347519 -3.030820
  C 2.841370 -1.468378 -3.637837
  C 2.944415 -1.765280 -5.129242
  O 6.554451 -0.502980 -1.732933
  H 0.939628 1.171816 0.510610
  H 0.905639 -0.568405 0.874254
  H 0.385203 0.002513 -0.685265
  H 2.571794 -2.038973 -0.798732
  H 5.534377 -0.445155 0.078200
  H 4.737571 -2.319896 -3.124529
  H 4.852305 -0.661274 -3.607205
  H 2.290965 -0.540395 -3.487260
  H 2.264162 -2.259956 -3.155948
  H 3.466695 -0.963402 -5.642512
  H 1.949787 -1.851223 -5.565026
  H 3.458460 -2.702694 -5.320437
  H 7.328692 -0.160339 -1.247140
