 29
 0.000000
  C 0.952187 0.128420 0.409585
  C 2.427551 0.132439 0.400847
  C 3.222046 0.606996 1.557287
  C 2.460491 1.101895 2.782695
  C 3.434054 1.548230 3.868792
  C 3.042636 -0.335683 -0.757285
  C 4.420369 -0.414808 -0.958023
  C 5.104487 -0.864879 -2.083795
  C 4.606801 -1.380270 -3.386861
  C 3.121485 -1.494586 -3.691874
  H 2.989294 -1.888018 -4.688328
  O 6.423940 -0.867646 -2.069892
  H 0.525979 0.505483 1.331374
  H 0.587629 -0.885871 0.238986
  H 0.575424 0.723193 -0.423929
  H 3.878239 1.414538 1.214890
  H 3.886206 -0.204561 1.873886
  H 1.829709 0.306443 3.183489
  H 1.822082 1.946217 2.516578
  H 4.073260 0.725179 4.181125
  H 2.891375 1.901039 4.742470
  H 4.065655 2.360653 3.515813
  H 2.384389 -0.656959 -1.544826
  H 5.052635 -0.086988 -0.141742
  H 5.069289 -2.365560 -3.513935
  H 5.076378 -0.753411 -4.153301
  H 2.644766 -0.517061 -3.644778
  H 2.637759 -2.172457 -2.990752
  H 6.828063 -0.539634 -1.246954
 29
 0.508018
  C 0.982379 -0.147836 0.521798
  C 2.439695 0.068367 0.426520
  C 3.213738 0.712126 1.512383
  C 2.459876 1.101169 2.781454
  C 3.412001 1.729840 3.795325
  C 3.054613 -0.385005 -0.738163
  C 4.429674 -0.484837 -0.940927
  C 5.090847 -1.032685 -2.035893
  C 4.579611 -1.415813 -3.382017
  C 3.146131 -1.112013 -3.787894
  H 3.040445 -1.323965 -4.849444
  O 6.387782 -1.263562 -1.954414
  H 0.549145 0.222659 1.442135
  H 0.787392 -1.218844 0.437529
  H 0.475854 0.314971 -0.325967
  H 3.685238 1.613106 1.101503
  H 4.041181 0.053384 1.796747
  H 2.000605 0.219137 3.231349
  H 1.672723 1.820829 2.550201
  H 4.198549 1.032464 4.076696
  H 2.873601 2.009361 4.697965
  H 3.875691 2.626860 3.389827
  H 2.396501 -0.746405 -1.508566
  H 5.069574 -0.193185 -0.117489
  H 4.774679 -2.487156 -3.501422
  H 5.260104 -0.930369 -4.090625
  H 2.901810 -0.065522 -3.631746
  H 2.435088 -1.744428 -3.264953
  H 6.799327 -1.000402 -1.110516
 29
 3.271509
  C 1.056933 -0.275367 0.554810
  C 2.457618 0.161051 0.396407
  C 3.185243 0.877686 1.466116
  C 2.487093 1.021707 2.817584
  C 3.390719 1.746483 3.810784
  C 3.073457 -0.212966 -0.795987
  C 4.437621 -0.424808 -0.972125
  C 5.034899 -1.132296 -2.010031
  C 4.520847 -1.478949 -3.364990
  C 3.182579 -0.945362 -3.851838
  H 3.085905 -1.183418 -4.908120
  O 6.263745 -1.589223 -1.856842
  H 0.570689 0.127606 1.436380
  H 1.078982 -1.367433 0.630160
  H 0.469476 -0.043767 -0.331883
  H 3.416219 1.881068 1.085446
  H 4.158951 0.406717 1.629133
  H 2.239837 0.035981 3.216648
  H 1.562848 1.591533 2.711988
  H 4.313587 1.195149 3.973818
  H 2.890280 1.852960 4.770148
  H 3.643865 2.742430 3.451319
  H 2.411802 -0.504934 -1.594548
  H 5.084018 -0.197736 -0.132694
  H 4.533984 -2.571223 -3.447815
  H 5.306031 -1.138872 -4.050809
  H 3.121719 0.134170 -3.745580
  H 2.346704 -1.417761 -3.344524
  H 6.695668 -1.330861 -1.021318
 29
 8.405708
  C 1.158350 -0.302000 0.488210
  C 2.485137 0.326162 0.338796
  C 3.156942 1.034488 1.444290
  C 2.545119 0.900816 2.836234
  C 3.382062 1.657681 3.862880
  C 3.116821 0.055408 -0.876604
  C 4.458644 -0.288313 -1.012786
  C 4.963244 -1.159333 -1.969486
  C 4.449215 -1.531380 -3.319999
  C 3.155530 -0.942781 -3.859174
  H 3.035168 -1.274344 -4.888355
  O 6.106607 -1.780344 -1.734104
  H 0.621544 0.006631 1.376953
  H 1.362208 -1.376905 0.542784
  H 0.540582 -0.150108 -0.395546
  H 3.176187 2.098999 1.172604
  H 4.209873 0.742274 1.491734
  H 2.498411 -0.150373 3.120618
  H 1.531187 1.305520 2.849947
  H 4.388695 1.251822 3.922442
  H 2.931175 1.581361 4.849227
  H 3.452030 2.712314 3.606034
  H 2.464902 -0.135462 -1.712560
  H 5.100680 -0.109390 -0.157277
  H 4.403013 -2.626083 -3.361546
  H 5.264088 -1.259207 -3.999569
  H 3.180628 0.141959 -3.860025
  H 2.288579 -1.296890 -3.310283
  H 6.559108 -1.504593 -0.916361
 29
 15.458870
  C 1.328827 -0.432549 0.437873
  C 2.557203 0.380804 0.324656
  C 3.164208 1.098249 1.460683
  C 2.560233 0.856925 2.842571
  C 3.318675 1.647225 3.904458
  C 3.185704 0.242162 -0.915937
  C 4.503366 -0.194407 -1.053692
  C 4.877971 -1.182560 -1.947068
  C 4.329771 -1.563106 -3.281666
  C 3.114525 -0.860801 -3.864907
  H 2.958795 -1.236467 -4.874080
  O 5.945640 -1.921057 -1.678537
  H 0.796212 -0.304554 1.371714
  H 1.696973 -1.464159 0.355255
  H 0.658886 -0.276507 -0.404971
  H 3.092748 2.167811 1.228304
  H 4.239887 0.899022 1.497821
  H 2.608301 -0.205215 3.088155
  H 1.514833 1.166215 2.859932
  H 4.361419 1.339948 3.950084
  H 2.878270 1.483617 4.884672
  H 3.284595 2.714223 3.694134
  H 2.533890 0.141342 -1.769702
  H 5.160414 -0.043888 -0.203958
  H 4.159810 -2.643102 -3.268905
  H 5.176831 -1.415407 -3.964100
  H 3.267215 0.213052 -3.930670
  H 2.210847 -1.077997 -3.304535
  H 6.430332 -1.655421 -0.876962
 29
 23.401496
  C 1.501845 -0.500370 0.348347
  C 2.630166 0.451619 0.295425
  C 3.181277 1.149100 1.469068
  C 2.605085 0.782236 2.834326
  C 3.244341 1.628187 3.931024
  C 3.270098 0.412816 -0.951416
  C 4.558170 -0.121691 -1.083586
  C 4.805594 -1.196565 -1.914020
  C 4.213996 -1.579355 -3.234982
  C 3.028754 -0.827666 -3.817164
  H 2.821306 -1.234858 -4.804411
  O 5.806633 -2.017831 -1.626169
  H 0.955363 -0.497762 1.280958
  H 2.007331 -1.466045 0.194909
  H 0.823023 -0.378264 -0.492381
  H 3.022382 2.221483 1.294003
  H 4.269733 1.038625 1.489718
  H 2.792970 -0.273920 3.045620
  H 1.527630 0.948391 2.847504
  H 4.319946 1.475198 3.964905
  H 2.837528 1.357274 4.905319
  H 3.054457 2.685508 3.767960
  H 2.631297 0.407110 -1.820734
  H 5.216137 -0.008981 -0.229112
  H 3.988442 -2.647491 -3.192284
  H 5.054717 -1.488872 -3.932413
  H 3.246356 0.230681 -3.937236
  H 2.130441 -0.963108 -3.223623
  H 6.289304 -1.793481 -0.810362
 29
 33.011407
  C 1.678449 -0.575353 0.257611
  C 2.690090 0.492231 0.259089
  C 3.165927 1.207898 1.469013
  C 2.623177 0.739315 2.817297
  C 3.207030 1.578794 3.951556
  C 3.325627 0.559731 -0.995027
  C 4.598418 -0.043250 -1.124123
  C 4.718120 -1.202902 -1.855074
  C 4.087789 -1.616087 -3.153140
  C 2.960371 -0.802555 -3.766442
  H 2.711683 -1.237615 -4.733130
  O 5.678850 -2.071122 -1.545812
  H 1.135198 -0.696626 1.179345
  H 2.317615 -1.456203 0.032296
  H 0.999080 -0.501463 -0.594128
  H 2.903116 2.261385 1.326664
  H 4.267753 1.205047 1.489828
  H 2.888761 -0.310477 2.979231
  H 1.536736 0.825914 2.838252
  H 4.295362 1.503458 3.973833
  H 2.830965 1.230082 4.913348
  H 2.940394 2.625106 3.842232
  H 2.694947 0.590337 -1.861847
  H 5.274083 0.080138 -0.283707
  H 3.780767 -2.660438 -3.050797
  H 4.930582 -1.623737 -3.857226
  H 3.261067 0.231312 -3.941141
  H 2.058047 -0.834708 -3.162359
  H 6.215150 -1.814969 -0.779199
 29
 42.095034
  C 1.830651 -0.666356 0.247660
  C 2.735592 0.496581 0.264580
  C 3.162490 1.220726 1.466170
  C 2.606967 0.738182 2.805450
  C 3.163458 1.576968 3.949230
  C 3.363762 0.633924 -0.996275
  C 4.608486 -0.018756 -1.157028
  C 4.641578 -1.216571 -1.820631
  C 3.982107 -1.645068 -3.096118
  C 2.928185 -0.763517 -3.753865
  H 2.691110 -1.188947 -4.728486
  O 5.594157 -2.106226 -1.501102
  H 1.339847 -0.886849 1.186252
  H 2.539405 -1.473579 -0.047383
  H 1.132049 -0.667443 -0.585619
  H 2.867632 2.265270 1.313829
  H 4.259521 1.248578 1.505992
  H 2.879535 -0.305369 2.965638
  H 1.517204 0.814087 2.811878
  H 4.250666 1.511913 3.990002
  H 2.767708 1.228802 4.900768
  H 2.887967 2.618369 3.836416
  H 2.718281 0.746794 -1.855195
  H 5.331878 0.127018 -0.354555
  H 3.580599 -2.645544 -2.940196
  H 4.812913 -1.763054 -3.791293
  H 3.302398 0.242223 -3.920543
  H 2.002355 -0.732875 -3.182813
  H 6.288626 -1.754656 -0.922038
 29
 52.528445
  C 1.992363 -0.670208 0.148077
  C 2.817572 0.551547 0.217940
  C 3.208489 1.233145 1.444720
  C 2.625428 0.701326 2.757804
  C 3.095001 1.548960 3.936750
  C 3.437969 0.763001 -1.059026
  C 4.647462 0.036733 -1.198330
  C 4.608382 -1.190840 -1.780263
  C 3.920654 -1.646964 -3.037004
  C 2.828601 -0.793639 -3.661385
  H 2.465018 -1.302012 -4.549872
  O 5.534076 -2.101014 -1.443854
  H 1.527809 -0.993048 1.063995
  H 2.771582 -1.406407 -0.240221
  H 1.308888 -0.715826 -0.701916
  H 2.903558 2.274515 1.320866
  H 4.303559 1.263380 1.514490
  H 2.948539 -0.326812 2.917977
  H 1.538280 0.718469 2.719255
  H 4.177957 1.546462 4.017772
  H 2.689604 1.157981 4.871965
  H 2.761213 2.581019 3.827981
  H 2.822053 0.984674 -1.907934
  H 5.327222 0.132979 -0.342311
  H 3.540096 -2.650033 -2.854373
  H 4.736262 -1.760903 -3.766227
  H 3.208639 0.167751 -3.982424
  H 1.986745 -0.657905 -2.990598
  H 6.132825 -1.827312 -0.739108
 29
 70.767567
  C 2.109561 -0.663750 0.098984
  C 2.838774 0.572062 0.203578
  C 3.169549 1.284026 1.432030
  C 2.659447 0.677679 2.733323
  C 3.100556 1.519062 3.921845
  C 3.465204 0.857484 -1.075481
  C 4.638803 0.066146 -1.219497
  C 4.448421 -1.216779 -1.654472
  C 3.786513 -1.695988 -2.922959
  C 2.842057 -0.774244 -3.665376
  H 2.575065 -1.248751 -4.608514
  O 5.396198 -2.132663 -1.322487
  H 1.683956 -1.082119 0.993189
  H 3.010447 -1.292748 -0.365572
  H 1.535306 -0.864435 -0.799500
  H 2.765835 2.297875 1.334656
  H 4.269908 1.417342 1.478519
  H 3.047511 -0.339732 2.855363
  H 1.565170 0.636635 2.717323
  H 4.186923 1.608224 3.958582
  H 2.772784 1.055455 4.859274
  H 2.680036 2.517328 3.867912
  H 2.789348 0.929562 -1.921494
  H 5.429193 0.234960 -0.477613
  H 3.322163 -2.666965 -2.737640
  H 4.642369 -1.886612 -3.583407
  H 3.320581 0.177202 -3.897542
  H 1.920342 -0.605945 -3.125463
  H 6.076167 -1.791019 -0.729336
 29
 85.571108
  C 2.142915 -0.612552 0.097844
  C 2.803643 0.572168 0.202070
  C 3.156240 1.314088 1.432469
  C 2.657805 0.696665 2.736515
  C 3.071392 1.554463 3.927619
  C 3.481863 0.848936 -1.073537
  C 4.635489 0.054981 -1.215733
  C 4.466831 -1.284888 -1.663577
  C 3.792169 -1.728372 -2.959374
  C 2.800961 -0.784613 -3.616813
  H 2.451442 -1.246029 -4.537764
  O 5.430748 -2.194957 -1.354498
  H 1.735320 -1.066490 0.985104
  H 3.430227 -1.391869 -0.695941
  H 1.647055 -0.914854 -0.813273
  H 2.738844 2.322962 1.335474
  H 4.241903 1.448011 1.469464
  H 3.078019 -0.303213 2.855689
  H 1.570462 0.613735 2.719383
  H 4.154283 1.630289 3.995507
  H 2.705345 1.117790 4.853421
  H 2.662534 2.558963 3.844979
  H 2.848883 1.067987 -1.921814
  H 5.393322 0.191843 -0.447169
  H 3.332465 -2.701692 -2.782057
  H 4.620197 -1.900425 -3.653240
  H 3.271395 0.157501 -3.882689
  H 1.924525 -0.605261 -3.000026
  H 6.087074 -1.871649 -0.717240
 29
 74.708186
  C 1.979348 -0.562208 0.233260
  C 2.748906 0.520733 0.291593
  C 3.185088 1.294473 1.491200
  C 2.616266 0.788086 2.813629
  C 3.085743 1.664579 3.966638
  C 3.399501 0.727988 -1.012264
  C 4.554204 -0.022838 -1.202334
  C 4.504609 -1.390808 -1.744253
  C 3.888408 -1.746492 -3.109005
  C 2.855274 -0.801093 -3.689602
  H 2.526158 -1.202565 -4.644221
  O 5.591405 -2.201335 -1.549546
  H 1.537807 -0.967988 1.123870
  H 3.698451 -1.635689 -0.928156
  H 1.566203 -0.933419 -0.687762
  H 2.868433 2.329142 1.337344
  H 4.277656 1.313189 1.544181
  H 2.944447 -0.238564 2.989583
  H 1.526186 0.800112 2.778107
  H 4.166144 1.619987 4.074553
  H 2.638058 1.330696 4.900228
  H 2.800036 2.700372 3.807683
  H 2.735588 0.942245 -1.840572
  H 5.357827 0.142131 -0.488317
  H 3.481025 -2.754052 -3.026214
  H 4.739224 -1.806764 -3.794001
  H 3.278909 0.179383 -3.879364
  H 1.974355 -0.717644 -3.060869
  H 6.204268 -1.883042 -0.869734
 29
 64.637683
  C 1.678787 -0.350134 0.267151
  C 2.620124 0.597461 0.281414
  C 3.172681 1.316776 1.469492
  C 2.601215 0.862022 2.810652
  C 3.233016 1.648340 3.956184
  C 3.335141 0.599179 -0.993817
  C 4.504275 -0.133961 -1.108289
  C 4.576410 -1.451904 -1.762541
  C 4.075846 -1.717204 -3.195754
  C 2.879365 -0.935462 -3.698249
  H 2.711411 -1.209711 -4.736458
  O 5.731224 -2.179426 -1.596029
  H 1.143678 -0.643039 1.150870
  H 3.785927 -1.835793 -1.024118
  H 1.332913 -0.780329 -0.654899
  H 2.951433 2.378281 1.326099
  H 4.257796 1.226617 1.489990
  H 2.797178 -0.199016 2.956768
  H 1.522466 1.018492 2.826110
  H 4.312217 1.522977 3.965496
  H 2.844346 1.303388 4.910593
  H 3.012792 2.707011 3.866226
  H 2.748442 0.854595 -1.867208
  H 5.239170 -0.000525 -0.317054
  H 3.880300 -2.787796 -3.258696
  H 4.934709 -1.510962 -3.840867
  H 3.060902 0.133190 -3.676313
  H 1.973281 -1.179495 -3.152314
  H 6.326687 -1.816799 -0.922884
 29
 56.515744
  C 1.600881 -0.379736 0.418366
  C 2.655081 0.448340 0.386056
  C 3.254752 1.196469 1.527305
  C 2.570855 0.961691 2.874621
  C 3.198514 1.835105 3.953954
  C 3.291984 0.393886 -0.917563
  C 4.483521 -0.274837 -1.090010
  C 4.648567 -1.508295 -1.886311
  C 4.160284 -1.658696 -3.344993
  C 2.935906 -0.878833 -3.783662
  H 2.737248 -1.125117 -4.823990
  O 5.870840 -2.138657 -1.807523
  H 1.087460 -0.633685 1.325017
  H 3.921475 -2.065561 -1.214666
  H 1.201112 -0.799917 -0.489050
  H 3.192937 2.259561 1.271370
  H 4.313902 0.962213 1.619070
  H 2.667878 -0.084598 3.163850
  H 1.510645 1.200920 2.797948
  H 4.245997 1.585286 4.095526
  H 2.686641 1.691973 4.900082
  H 3.129853 2.889022 3.689072
  H 2.635888 0.555414 -1.762799
  H 5.251074 -0.119733 -0.335096
  H 3.999552 -2.724729 -3.509600
  H 5.015648 -1.366647 -3.959122
  H 3.103651 0.192260 -3.733710
  H 2.052693 -1.154965 -3.217255
  H 6.423707 -1.825998 -1.073786
 29
 54.270128
  C 1.485453 -0.425049 0.591508
  C 2.492467 0.458692 0.424448
  C 3.160414 1.250508 1.490328
  C 2.647667 0.986016 2.897546
  C 3.352336 1.881056 3.905952
  C 3.096177 0.263630 -0.890751
  C 4.355009 -0.293705 -1.057537
  C 4.532881 -1.541075 -1.869030
  C 4.288289 -1.576781 -3.393867
  C 3.136816 -0.781181 -3.968105
  H 3.110214 -0.960345 -5.042235
  O 5.717934 -2.218066 -1.664324
  H 1.113092 -0.677748 1.567506
  H 3.673148 -2.091168 -1.347454
  H 1.061275 -0.954038 -0.238261
  H 2.998964 2.311099 1.246968
  H 4.242863 1.091511 1.459876
  H 2.825191 -0.054323 3.164592
  H 1.571075 1.179830 2.943797
  H 4.422198 1.691198 3.914357
  H 2.968700 1.698392 4.906186
  H 3.192971 2.931850 3.670039
  H 2.384862 0.153732 -1.706388
  H 5.091233 -0.118289 -0.284752
  H 4.181135 -2.628464 -3.665983
  H 5.228032 -1.223129 -3.826077
  H 3.268357 0.288406 -3.814516
  H 2.178124 -1.107417 -3.574736
  H 6.071668 -2.103006 -0.765985
