 26
 0.000000
  H 1.461876 0.190925 0.525894
  C 2.536996 0.148821 0.420845
  C 3.316072 0.627227 1.611835
  C 2.400280 1.080732 2.741072
  H 2.983205 1.423282 3.593917
  C 3.047832 -0.310036 -0.721794
  C 4.459075 -0.421484 -0.999575
  C 5.090759 -0.863589 -2.101374
  C 4.612123 -1.394237 -3.423893
  C 3.122594 -1.508126 -3.708629
  C 2.895129 -2.069859 -5.108896
  O 6.465176 -0.876422 -2.133419
  H 3.966923 1.457054 1.318801
  H 3.967016 -0.174665 1.974184
  H 1.763649 0.261273 3.066957
  H 1.763589 1.897913 2.409627
  H 2.364166 -0.620313 -1.494324
  H 5.102985 -0.095734 -0.187926
  H 5.070952 -2.381421 -3.539270
  H 5.071369 -0.760851 -4.189607
  H 2.654408 -0.524644 -3.643047
  H 2.654011 -2.173397 -2.981588
  H 3.340399 -1.420551 -5.859620
  H 1.830913 -2.153046 -5.316871
  H 3.339997 -3.058156 -5.202600
  H 6.821771 -0.541312 -1.297980
 26
 2.220214
  H 1.456931 0.404271 0.477112
  C 2.524286 0.229805 0.391363
  C 3.329668 0.570402 1.613017
  C 2.444532 1.064849 2.751816
  H 3.047098 1.332903 3.622936
  C 3.007407 -0.240814 -0.764207
  C 4.405933 -0.473070 -1.005621
  C 5.065929 -0.857326 -2.108642
  C 4.626425 -1.360019 -3.449212
  C 3.140837 -1.546590 -3.714103
  C 2.907983 -2.133976 -5.098558
  O 6.443358 -0.782132 -2.075204
  H 4.062465 1.348222 1.365354
  H 3.889743 -0.309893 1.950663
  H 1.738085 0.289482 3.047498
  H 1.882408 1.944707 2.440934
  H 2.305970 -0.431664 -1.562014
  H 5.021371 -0.364474 -0.114706
  H 5.133086 -2.321588 -3.578993
  H 5.044549 -0.687187 -4.205635
  H 2.632544 -0.583098 -3.652917
  H 2.713093 -2.213345 -2.964712
  H 3.299127 -1.468757 -5.868355
  H 1.842082 -2.268913 -5.270996
  H 3.399921 -3.101709 -5.193736
  H 6.642441 -0.301105 -1.260964
 26
 6.153460
  H 1.541004 0.710448 0.372457
  C 2.570098 0.392926 0.338644
  C 3.327338 0.525976 1.628416
  C 2.427331 0.982346 2.771887
  H 3.007514 1.130690 3.681174
  C 3.053607 -0.093992 -0.810073
  C 4.423490 -0.465250 -1.013592
  C 5.071015 -0.793304 -2.148473
  C 4.618891 -1.245885 -3.503927
  C 3.135416 -1.524399 -3.704893
  C 2.907913 -2.265025 -5.025220
  O 6.446548 -0.752744 -2.096715
  H 4.143195 1.241605 1.502435
  H 3.772931 -0.437731 1.891457
  H 1.658759 0.236827 2.972403
  H 1.938781 1.922307 2.521718
  H 2.387474 -0.144371 -1.661679
  H 4.993170 -0.595160 -0.098859
  H 5.174568 -2.177710 -3.668517
  H 4.967409 -0.528745 -4.249408
  H 2.573229 -0.588935 -3.712199
  H 2.780538 -2.157099 -2.880123
  H 3.227293 -1.652249 -5.870353
  H 1.853642 -2.505671 -5.152609
  H 3.473985 -3.192838 -5.044937
  H 6.620100 -0.279075 -1.277277
 26
 15.147976
  H 1.573961 0.813367 0.337224
  C 2.588401 0.430805 0.298982
  C 3.315050 0.418357 1.611601
  C 2.416094 0.862714 2.763508
  H 2.964894 0.866473 3.706319
  C 3.101378 0.064856 -0.882816
  C 4.448830 -0.357505 -1.064991
  C 5.086266 -0.683136 -2.213519
  C 4.643297 -1.246676 -3.515995
  C 3.153709 -1.495288 -3.676886
  C 2.878065 -2.342440 -4.914391
  O 6.459265 -0.530251 -2.149320
  H 4.165548 1.105149 1.549628
  H 3.711910 -0.579857 1.816808
  H 1.559715 0.198308 2.856814
  H 2.043905 1.870438 2.584179
  H 2.478190 0.180584 -1.772585
  H 4.957739 -0.654302 -0.161431
  H 5.179813 -2.201105 -3.595220
  H 5.014575 -0.619146 -4.329618
  H 2.609884 -0.557005 -3.736067
  H 2.806752 -2.040975 -2.797694
  H 3.201373 -1.824384 -5.817618
  H 1.820941 -2.558709 -4.998058
  H 3.415338 -3.291853 -4.856552
  H 6.503591 -0.084689 -1.278419
 26
 29.698157
  H 1.640437 1.004288 0.293850
  C 2.633053 0.537572 0.276501
  C 3.291430 0.386054 1.587194
  C 2.424385 0.846378 2.741448
  H 2.972871 0.772804 3.675865
  C 3.145777 0.183272 -0.911245
  C 4.453088 -0.306740 -1.077142
  C 5.106913 -0.702814 -2.221702
  C 4.660498 -1.281103 -3.508928
  C 3.197951 -1.678115 -3.590438
  C 2.887778 -2.360698 -4.916916
  O 6.463020 -0.410039 -2.092136
  H 4.233651 0.922952 1.597800
  H 3.551919 -0.668116 1.761958
  H 1.554918 0.218134 2.832908
  H 2.112172 1.877611 2.603366
  H 2.553883 0.373409 -1.803923
  H 4.886384 -0.667641 -0.175612
  H 5.295183 -2.152243 -3.674811
  H 4.883406 -0.574336 -4.319293
  H 2.584280 -0.766815 -3.557554
  H 2.896033 -2.296904 -2.742627
  H 3.059685 -1.673304 -5.738013
  H 1.840122 -2.654645 -4.952751
  H 3.505757 -3.249328 -5.064475
  H 6.286799 0.064064 -1.259970
 26
 54.853364
  H 1.684519 1.056786 0.272264
  C 2.662649 0.599481 0.249828
  C 3.315291 0.382423 1.584390
  C 2.407360 0.787312 2.738974
  H 2.921796 0.671160 3.690792
  C 3.209958 0.286492 -0.927083
  C 4.542058 -0.255573 -1.094108
  C 5.178978 -0.672390 -2.286394
  C 4.677238 -1.267239 -3.554580
  C 3.193912 -1.615862 -3.605596
  C 2.866321 -2.409923 -4.864551
  O 6.447940 -0.458974 -2.160940
  H 4.244542 0.960437 1.635454
  H 3.587773 -0.672936 1.696783
  H 1.511966 0.168666 2.754902
  H 2.105081 1.827050 2.637954
  H 2.665021 0.514151 -1.830551
  H 4.902376 -0.799927 -0.221631
  H 5.273020 -2.177224 -3.705067
  H 4.938978 -0.599642 -4.382485
  H 2.597912 -0.702428 -3.599356
  H 2.925216 -2.198863 -2.721957
  H 3.078167 -1.821012 -5.754431
  H 1.815189 -2.683964 -4.877875
  H 3.457831 -3.321880 -4.909209
  H 5.977263 0.142056 -1.017003
 26
 28.367876
  H 1.728778 1.028652 0.154090
  C 2.717863 0.586441 0.189561
  C 3.290718 0.336616 1.556673
  C 2.337579 0.748873 2.668315
  H 2.801904 0.604952 3.641418
  C 3.356236 0.335870 -0.959150
  C 4.750378 -0.219881 -1.060517
  C 5.356060 -0.678749 -2.364642
  C 4.733687 -1.310566 -3.585890
  C 3.227225 -1.619871 -3.504550
  C 2.781958 -2.404901 -4.748665
  O 6.566617 -0.482761 -2.319005
  H 4.235452 0.869312 1.629526
  H 3.519378 -0.744666 1.657973
  H 1.418463 0.172343 2.656496
  H 2.084324 1.804782 2.542251
  H 2.902640 0.582320 -1.907785
  H 5.016171 -0.869196 -0.213391
  H 5.294440 -2.228304 -3.812601
  H 4.898616 -0.618036 -4.404805
  H 2.675696 -0.687293 -3.447246
  H 3.040051 -2.217260 -2.597246
  H 2.941001 -1.781951 -5.636613
  H 1.721644 -2.658860 -4.685906
  H 3.359351 -3.320277 -4.893432
  H 5.769222 0.300521 -0.878542
 26
 13.088677
  H 1.751762 0.976240 0.144239
  C 2.760800 0.589481 0.173649
  C 3.354275 0.439176 1.545697
  C 2.347080 0.733479 2.655525
  H 2.823413 0.677894 3.632807
  C 3.372460 0.270289 -0.961095
  C 4.759346 -0.268753 -1.043053
  C 5.381425 -0.766505 -2.316311
  C 4.713656 -1.291725 -3.558437
  C 3.211179 -1.535636 -3.556443
  C 2.787120 -2.359306 -4.770054
  O 6.589021 -0.671465 -2.295815
  H 4.204309 1.121331 1.656517
  H 3.733475 -0.583102 1.669567
  H 1.530691 0.014000 2.629366
  H 1.927802 1.731042 2.536941
  H 2.853051 0.422361 -1.895211
  H 4.969302 -0.941166 -0.190829
  H 5.218000 -2.252428 -3.726307
  H 5.019454 -0.668870 -4.399765
  H 2.676294 -0.582300 -3.587935
  H 2.911391 -2.046495 -2.637708
  H 2.998202 -1.826776 -5.694254
  H 1.721203 -2.577038 -4.726259
  H 3.316983 -3.313355 -4.786075
  H 5.667942 0.349169 -0.807585
 26
 3.463951
  H 1.689079 0.820888 0.187229
  C 2.723533 0.509436 0.200728
  C 3.381231 0.483383 1.546629
  C 2.403154 0.783678 2.675771
  H 2.919891 0.810372 3.632459
  C 3.322021 0.204697 -0.939083
  C 4.739372 -0.269327 -1.013467
  C 5.389828 -0.821312 -2.263718
  C 4.709285 -1.392019 -3.488305
  C 3.196288 -1.549524 -3.576797
  C 2.819312 -2.291414 -4.855434
  O 6.592688 -0.747459 -2.276807
  H 4.195230 1.214562 1.563126
  H 3.836980 -0.498455 1.713201
  H 1.631577 0.018078 2.725767
  H 1.923636 1.747344 2.518647
  H 2.769684 0.273881 -1.858423
  H 4.927582 -0.995075 -0.210010
  H 5.165576 -2.382419 -3.609102
  H 5.066487 -0.797856 -4.334777
  H 2.713582 -0.572994 -3.594294
  H 2.826946 -2.105730 -2.713011
  H 3.138205 -1.731002 -5.731360
  H 1.742051 -2.429254 -4.910467
  H 3.290330 -3.271543 -4.885236
  H 5.464982 0.513987 -0.764042
 26
 2.641292
  H 1.557715 0.387512 0.389908
  C 2.628516 0.250356 0.330319
  C 3.400834 0.579838 1.571685
  C 2.498729 1.035377 2.711958
  H 3.088823 1.278671 3.592692
  C 3.165273 -0.178361 -0.800487
  C 4.642013 -0.381031 -0.949426
  C 5.335463 -0.902381 -2.196605
  C 4.690560 -1.424265 -3.470359
  C 3.185560 -1.506379 -3.692513
  C 2.895173 -2.124503 -5.058477
  O 6.546804 -0.914782 -2.161230
  H 4.130129 1.365187 1.346191
  H 3.973491 -0.298619 1.887674
  H 1.794180 0.250169 2.977872
  H 1.935375 1.919948 2.422304
  H 2.525556 -0.382415 -1.634592
  H 4.981549 -1.055822 -0.151670
  H 5.113394 -2.427969 -3.594876
  H 5.130946 -0.821884 -4.273007
  H 2.743720 -0.509321 -3.666254
  H 2.722701 -2.126392 -2.923014
  H 3.332924 -1.523189 -5.852380
  H 1.822552 -2.185525 -5.227277
  H 3.309261 -3.128443 -5.122013
  H 5.156140 0.554601 -0.728710
 26
 1.988874
  H 1.591796 -0.243902 0.611838
  C 2.652514 -0.112330 0.451186
  C 3.371770 0.719256 1.469892
  C 2.445269 1.212229 2.574512
  H 2.993043 1.822487 3.289085
  C 3.223549 -0.667387 -0.608997
  C 4.692546 -0.566736 -0.877788
  C 5.371090 -1.094770 -2.126785
  C 4.701412 -1.488573 -3.431852
  C 3.196854 -1.425405 -3.662536
  C 2.875997 -1.800056 -5.107170
  O 6.582352 -1.136232 -2.102636
  H 3.836984 1.577656 0.973778
  H 4.184307 0.131875 1.910007
  H 2.006824 0.371307 3.107601
  H 1.640041 1.813255 2.157270
  H 2.624851 -1.256477 -1.278038
  H 5.225776 -1.021415 -0.033382
  H 5.048930 -2.506484 -3.638324
  H 5.189930 -0.854937 -4.180934
  H 2.828445 -0.416247 -3.468442
  H 2.677627 -2.123344 -3.005453
  H 3.360430 -1.114617 -5.799217
  H 1.803253 -1.759303 -5.280503
  H 3.220563 -2.808166 -5.327181
  H 5.001286 0.486188 -0.854399
 26
 -1.006924
  H 1.775857 -0.742657 0.762994
  C 2.770219 -0.411717 0.498489
  C 3.292431 0.770313 1.258323
  C 2.303274 1.269229 2.304380
  H 2.704240 2.134205 2.827943
  C 3.434663 -1.045227 -0.456924
  C 4.835478 -0.692904 -0.851303
  C 5.468588 -1.286922 -2.090515
  C 4.703960 -1.573285 -3.370005
  C 3.227540 -1.220564 -3.516669
  C 2.770937 -1.462195 -4.952758
  O 6.668125 -1.447752 -2.093938
  H 3.521476 1.580409 0.557714
  H 4.234190 0.499110 1.746106
  H 2.098194 0.490853 3.036161
  H 1.364662 1.557369 1.835615
  H 2.988985 -1.901518 -0.934866
  H 5.497836 -0.931960 -0.011013
  H 4.854016 -2.635475 -3.587208
  H 5.261508 -1.033163 -4.143728
  H 3.068695 -0.170879 -3.262309
  H 2.613719 -1.828070 -2.855736
  H 3.340454 -0.848421 -5.647465
  H 1.717706 -1.215262 -5.062818
  H 2.908611 -2.505812 -5.227288
  H 4.922075 0.390167 -1.001650
 26
 -4.148302
  H 2.022411 -1.108889 0.908374
  C 2.920689 -0.642934 0.528348
  C 3.186049 0.754742 1.002146
  C 2.128445 1.242775 1.985844
  H 2.339265 2.263531 2.299249
  C 3.697840 -1.312554 -0.309037
  C 4.980160 -0.768124 -0.868554
  C 5.544886 -1.479132 -2.074257
  C 4.674774 -1.664333 -3.300676
  C 3.302484 -0.998799 -3.326282
  C 2.680873 -1.107203 -4.714753
  O 6.707644 -1.809718 -2.093892
  H 3.221223 1.430751 0.140744
  H 4.172981 0.793036 1.475673
  H 2.110369 0.609466 2.870877
  H 1.141429 1.222151 1.526963
  H 3.447936 -2.327615 -0.582964
  H 5.748511 -0.794323 -0.087244
  H 4.578612 -2.740284 -3.471193
  H 5.267030 -1.283245 -4.139497
  H 3.397465 0.055390 -3.059152
  H 2.634354 -1.465513 -2.603885
  H 3.303638 -0.611506 -5.455560
  H 1.697715 -0.642857 -4.728607
  H 2.571128 -2.149974 -5.004005
  H 4.869529 0.273034 -1.157128
 26
 -6.207908
  H 2.217306 -1.328592 0.976426
  C 3.038009 -0.774823 0.540633
  C 3.098343 0.685069 0.882566
  C 1.976782 1.103218 1.826183
  H 2.043936 2.164520 2.052826
  C 3.903394 -1.404710 -0.239392
  C 5.098292 -0.751591 -0.875459
  C 5.589319 -1.501991 -2.093330
  C 4.603359 -1.699027 -3.224948
  C 3.485500 -0.667571 -3.349778
  C 2.600080 -0.969655 -4.554741
  O 6.708233 -1.949317 -2.155356
  H 3.038054 1.277477 -0.037719
  H 4.066415 0.909023 1.342647
  H 2.038696 0.549472 2.759801
  H 1.006139 0.910365 1.375029
  H 3.793470 -2.464504 -0.422598
  H 5.918749 -0.705933 -0.153222
  H 4.165840 -2.692582 -3.081298
  H 5.176809 -1.744593 -4.154338
  H 3.919638 0.328521 -3.466245
  H 2.874102 -0.669259 -2.446725
  H 3.181903 -0.948356 -5.474201
  H 1.802893 -0.232922 -4.636471
  H 2.147251 -1.955053 -4.459034
  H 4.854929 0.270687 -1.169723
