 19
 0.000000
  C 0.993913 0.130964 0.377288
  C 2.458529 0.139916 0.399263
  C 3.221878 0.608989 1.566168
  C 2.434312 1.093181 2.771977
  H 3.121096 1.407546 3.554376
  C 3.109552 -0.321181 -0.748305
  C 4.505506 -0.394216 -0.931191
  C 5.083292 -0.850412 -2.068164
  H 4.511664 -1.191058 -2.916706
  H 6.155185 -0.891688 -2.171513
  H 0.547159 0.498888 1.292542
  H 0.631655 -0.881672 0.185716
  H 0.631459 0.729220 -0.461803
  H 3.892839 1.412017 1.236028
  H 3.893210 -0.198899 1.883293
  H 1.800880 0.306448 3.174318
  H 1.800577 1.939499 2.518486
  H 2.475073 -0.647973 -1.561242
  H 5.138808 -0.067409 -0.117843
 19
 4.127293
  C 1.015918 0.129781 0.374237
  C 2.465610 0.153616 0.432810
  C 3.203254 0.624394 1.603781
  C 2.387842 1.102072 2.794478
  H 3.055391 1.420792 3.587723
  C 3.156988 -0.293446 -0.679962
  C 4.526560 -0.396149 -0.935788
  C 5.020493 -0.872096 -2.121627
  H 4.370005 -1.191639 -2.917916
  H 6.077545 -0.942886 -2.297736
  H 0.542958 0.492835 1.277298
  H 0.672186 -0.885596 0.163522
  H 0.671877 0.716560 -0.480628
  H 3.878185 1.427950 1.282154
  H 3.879144 -0.177717 1.927119
  H 1.756660 0.308347 3.188452
  H 1.755972 1.947405 2.530566
  H 2.722149 -0.656928 -1.584819
  H 5.235144 -0.088912 -0.170345
 19
 13.893923
  C 0.992247 0.122109 0.355111
  C 2.466416 0.157761 0.443090
  C 3.200576 0.639011 1.639855
  C 2.374253 1.114704 2.826087
  H 3.037556 1.436840 3.627827
  C 3.184830 -0.282835 -0.653280
  C 4.537452 -0.406174 -0.960025
  C 4.977085 -0.881389 -2.144697
  H 4.302077 -1.196257 -2.930673
  H 6.032436 -0.964510 -2.351445
  H 0.496971 0.481568 1.248966
  H 0.659000 -0.898701 0.133470
  H 0.658667 0.705088 -0.511562
  H 3.879575 1.443065 1.321537
  H 3.880894 -0.160909 1.965609
  H 1.744115 0.319862 3.215326
  H 1.743295 1.957621 2.558082
  H 2.916128 -0.661077 -1.594690
  H 5.302487 -0.117472 -0.240171
 19
 27.129335
  C 1.003852 0.126901 0.366682
  C 2.461678 0.164837 0.459661
  C 3.184268 0.643058 1.649175
  C 2.351022 1.116676 2.831597
  H 3.005353 1.438366 3.632435
  C 3.187634 -0.272379 -0.628539
  C 4.535162 -0.412396 -0.976152
  C 4.953756 -0.894998 -2.177646
  H 4.277062 -1.206839 -2.955245
  H 5.996929 -0.983327 -2.396494
  H 0.504787 0.486112 1.260504
  H 0.676652 -0.889730 0.144130
  H 0.675809 0.706072 -0.497604
  H 3.865424 1.446386 1.331224
  H 3.867207 -0.156013 1.974113
  H 1.717746 0.316397 3.218902
  H 1.716611 1.962019 2.558982
  H 3.065846 -0.662700 -1.600201
  H 5.338286 -0.133350 -0.279937
 19
 42.214153
  C 0.993390 0.127697 0.368752
  C 2.449780 0.166027 0.462474
  C 3.175129 0.644966 1.653629
  C 2.344989 1.120039 2.840120
  H 3.004455 1.442622 3.643240
  C 3.174151 -0.268423 -0.618838
  C 4.534024 -0.419826 -0.994494
  C 4.946096 -0.901753 -2.194304
  H 4.277268 -1.215569 -2.976766
  H 5.988506 -0.989229 -2.410849
  H 0.494423 0.486681 1.262127
  H 0.666455 -0.890820 0.145297
  H 0.665628 0.707758 -0.497465
  H 3.857426 1.447169 1.332727
  H 3.859296 -0.155221 1.975475
  H 1.712212 0.320436 3.228843
  H 1.710860 1.965836 2.569233
  H 3.183601 -0.658606 -1.590183
  H 5.356405 -0.150324 -0.321821
 19
 54.992870
  C 0.976756 0.131641 0.383619
  C 2.436814 0.168459 0.464904
  C 3.168571 0.648233 1.653594
  C 2.347093 1.120203 2.839015
  H 3.011563 1.443435 3.640875
  C 3.152066 -0.268011 -0.626356
  C 4.526259 -0.432405 -1.014540
  C 4.957022 -0.907927 -2.210001
  H 4.299299 -1.221776 -3.012956
  H 6.012744 -0.994041 -2.410281
  H 0.486302 0.489770 1.278846
  H 0.647354 -0.883968 0.162561
  H 0.643809 0.711090 -0.477737
  H 3.847287 1.450180 1.331847
  H 3.852830 -0.150298 1.972077
  H 1.716552 0.320532 3.228879
  H 1.711452 1.964735 2.570976
  H 3.274603 -0.660746 -1.614372
  H 5.347206 -0.165828 -0.323472
 19
 64.892109
  C 0.951542 0.124070 0.405072
  C 2.445520 0.160484 0.428309
  C 3.194587 0.667278 1.647302
  C 2.348454 1.114581 2.814207
  H 3.006592 1.443655 3.620513
  C 3.121462 -0.247025 -0.618619
  C 4.496158 -0.470668 -1.052651
  C 4.990573 -0.911133 -2.223574
  H 4.400544 -1.199973 -3.076056
  H 6.052106 -0.999881 -2.358476
  H 0.519995 0.490333 1.326504
  H 0.594063 -0.891212 0.220502
  H 0.591096 0.729368 -0.429041
  H 3.848379 1.486990 1.335089
  H 3.866549 -0.137737 1.961125
  H 1.732648 0.307608 3.193744
  H 1.711619 1.951583 2.550692
  H 3.300598 -0.631538 -1.636641
  H 5.277819 -0.239133 -0.307529
 19
 68.363389
  C 0.934569 0.123590 0.417312
  C 2.434676 0.158483 0.419851
  C 3.194116 0.675782 1.649016
  C 2.351420 1.119001 2.816681
  H 3.024517 1.453262 3.617691
  C 3.110320 -0.239537 -0.620568
  C 4.476525 -0.505249 -1.106702
  C 5.029376 -0.918040 -2.253325
  H 4.494751 -1.187023 -3.140098
  H 6.092827 -1.006668 -2.331450
  H 0.524659 0.487984 1.347789
  H 0.585656 -0.892345 0.252999
  H 0.562876 0.739123 -0.397552
  H 3.824784 1.505560 1.325776
  H 3.857305 -0.132315 1.965279
  H 1.746264 0.308603 3.210431
  H 1.711577 1.957343 2.558197
  H 3.323040 -0.614915 -1.648107
  H 5.212792 -0.296547 -0.301264
 19
 72.454695
  C 0.944009 0.124192 0.432759
  C 2.437439 0.163959 0.433878
  C 3.194144 0.684453 1.651241
  C 2.338265 1.129292 2.828950
  H 2.994539 1.465351 3.616384
  C 3.110865 -0.233306 -0.615540
  C 4.483769 -0.533523 -1.135516
  C 5.051143 -0.921733 -2.280612
  H 4.510747 -1.158635 -3.201782
  H 6.119309 -1.029481 -2.339177
  H 0.530953 0.489918 1.373782
  H 0.600510 -0.901980 0.267968
  H 0.561080 0.741700 -0.387405
  H 3.816414 1.521432 1.319927
  H 3.863401 -0.121503 1.972857
  H 1.741430 0.316719 3.225726
  H 1.692732 1.959827 2.569467
  H 3.364336 -0.601784 -1.643497
  H 5.187588 -0.365116 -0.306691
 19
 76.437921
  C 0.926644 0.122272 0.444816
  C 2.427987 0.162586 0.433126
  C 3.194965 0.688384 1.642301
  C 2.351714 1.131018 2.819495
  H 3.021898 1.476404 3.611227
  C 3.087310 -0.232823 -0.621212
  C 4.478674 -0.553278 -1.146989
  C 5.072996 -0.914200 -2.287931
  H 4.558985 -1.110353 -3.217264
  H 6.137243 -1.038131 -2.316601
  H 0.523924 0.485633 1.383532
  H 0.582943 -0.899421 0.284181
  H 0.535639 0.734732 -0.366854
  H 3.808231 1.527505 1.304665
  H 3.867866 -0.112307 1.963193
  H 1.761915 0.316001 3.222706
  H 1.700525 1.958482 2.561464
  H 3.397398 -0.598824 -1.647102
  H 5.153343 -0.420716 -0.280974
 19
 79.845146
  C 0.915630 0.118908 0.457203
  C 2.411557 0.160274 0.428404
  C 3.194757 0.692818 1.628470
  C 2.366911 1.138612 2.819589
  H 3.043195 1.484251 3.593418
  C 3.053477 -0.237279 -0.635404
  C 4.472622 -0.576942 -1.149328
  C 5.097423 -0.900608 -2.285152
  H 4.610275 -1.046716 -3.237995
  H 6.169724 -1.044326 -2.283509
  H 0.521558 0.484314 1.403355
  H 0.572971 -0.900242 0.301978
  H 0.515867 0.728082 -0.349182
  H 3.802456 1.534387 1.280088
  H 3.874326 -0.105531 1.943660
  H 1.782510 0.321253 3.236030
  H 1.709020 1.966865 2.568801
  H 3.429130 -0.605056 -1.656927
  H 5.107666 -0.494434 -0.262825
 19
 82.439777
  C 0.898305 0.117735 0.475182
  C 2.400603 0.152212 0.422370
  C 3.199994 0.688892 1.604946
  C 2.389452 1.141926 2.803914
  H 3.082105 1.492287 3.571612
  C 3.024161 -0.251096 -0.649515
  C 4.461322 -0.596924 -1.141171
  C 5.123146 -0.878414 -2.268751
  H 4.672321 -0.970040 -3.246949
  H 6.186287 -1.035027 -2.231759
  H 0.522042 0.487573 1.423646
  H 0.548085 -0.902333 0.329513
  H 0.487569 0.726127 -0.327659
  H 3.802713 1.525766 1.244715
  H 3.881359 -0.108879 1.914212
  H 1.809069 0.328150 3.231890
  H 1.729575 1.970521 2.557552
  H 3.455167 -0.610404 -1.664496
  H 5.060562 -0.560910 -0.222674
 19
 84.326098
  C 0.892715 0.104807 0.492793
  C 2.392241 0.145974 0.424287
  C 3.205242 0.704588 1.589111
  C 2.406597 1.167945 2.798161
  H 3.105562 1.530740 3.549196
  C 3.007854 -0.263358 -0.647754
  C 4.439454 -0.658280 -1.131766
  C 5.149773 -0.830240 -2.260811
  H 4.748778 -0.770354 -3.260955
  H 6.203582 -1.051363 -2.196748
  H 0.527785 0.477157 1.432906
  H 0.546559 -0.916336 0.359645
  H 0.470781 0.704226 -0.308990
  H 3.798139 1.540893 1.209928
  H 3.897864 -0.084999 1.897707
  H 1.838030 0.356403 3.244085
  H 1.738308 1.988495 2.552149
  H 3.477943 -0.642151 -1.681951
  H 4.994328 -0.777091 -0.194194
 19
 86.699397
  C 0.892418 0.101734 0.494287
  C 2.398390 0.144596 0.424909
  C 3.216904 0.711157 1.589296
  C 2.421385 1.178163 2.797370
  H 3.122712 1.544654 3.546747
  C 3.017106 -0.265316 -0.644462
  C 4.432726 -0.678315 -1.129008
  C 5.164020 -0.811454 -2.256555
  H 4.778884 -0.700993 -3.263244
  H 6.212187 -1.050978 -2.182936
  H 0.520383 0.481831 1.449573
  H 0.546143 -0.925729 0.362489
  H 0.466627 0.702307 -0.312541
  H 3.807603 1.545759 1.207822
  H 3.910381 -0.075820 1.896766
  H 1.853744 0.367828 3.247796
  H 1.751724 1.997803 2.549227
  H 3.506695 -0.678997 -1.679731
  H 4.960205 -0.846546 -0.192397
