 29
 0.000000
  C 0.967748 0.141285 0.403601
  C 2.443723 0.138752 0.396544
  C 3.233315 0.606894 1.560981
  C 2.460149 1.096982 2.780905
  H 3.137360 1.410690 3.561254
  C 3.056839 -0.326268 -0.761085
  C 4.434144 -0.411451 -0.973732
  C 5.114189 -0.862228 -2.097678
  C 4.623723 -1.385381 -3.402082
  C 3.133640 -1.504262 -3.699357
  C 2.914329 -2.066468 -5.101189
  O 6.436553 -0.856356 -2.083059
  H 0.536817 0.512071 1.326334
  H 0.595041 -0.870249 0.237560
  H 0.594608 0.756388 -0.416219
  H 3.889398 1.417600 1.224997
  H 3.889762 -0.210587 1.879342
  H 1.824447 0.303257 3.171933
  H 1.824147 1.940376 2.514077
  H 2.397990 -0.643687 -1.551144
  H 5.052332 -0.079460 -0.146408
  H 5.080713 -2.373654 -3.526395
  H 5.081135 -0.757219 -4.174871
  H 2.657555 -0.524320 -3.647068
  H 2.657152 -2.176259 -2.984484
  H 3.354448 -1.418740 -5.855879
  H 1.850159 -2.149016 -5.307666
  H 3.354075 -3.056367 -5.199047
  H 6.809542 -0.521187 -1.246278
 29
 4.349246
  C 0.922526 0.162400 0.456738
  C 2.392830 0.138224 0.395393
  C 3.234067 0.592195 1.523999
  C 2.514059 1.092468 2.769220
  H 3.241863 1.393263 3.517264
  C 2.960020 -0.332785 -0.776956
  C 4.329126 -0.427936 -1.014555
  C 5.078469 -0.849735 -2.066531
  C 4.638968 -1.380860 -3.390890
  C 3.155419 -1.508084 -3.708997
  C 2.967923 -2.071775 -5.114792
  O 6.397711 -0.825152 -2.005183
  H 0.538015 0.539947 1.396038
  H 0.528724 -0.842176 0.296171
  H 0.528054 0.775938 -0.354431
  H 3.891879 1.388364 1.159575
  H 3.892419 -0.234303 1.811863
  H 1.887626 0.314934 3.200017
  H 1.887224 1.951586 2.542308
  H 2.278707 -0.643957 -1.551197
  H 5.057910 -0.143369 -0.305621
  H 5.111935 -2.362341 -3.505405
  H 5.112293 -0.750811 -4.151898
  H 2.674142 -0.530900 -3.663343
  H 2.673725 -2.182774 -3.000899
  H 3.419592 -1.420508 -5.859317
  H 1.909892 -2.164121 -5.345831
  H 3.419169 -3.057213 -5.203008
  H 6.763762 -0.489346 -1.165792
 29
 13.840874
  C 0.879965 0.176621 0.493227
  C 2.352906 0.139908 0.400104
  C 3.222609 0.587905 1.512865
  C 2.531575 1.093297 2.770099
  H 3.291188 1.390196 3.507943
  C 2.903213 -0.338834 -0.791342
  C 4.259403 -0.440102 -1.044220
  C 5.066083 -0.849615 -2.066334
  C 4.671268 -1.385971 -3.404336
  C 3.187341 -1.509393 -3.712584
  C 2.983867 -2.072067 -5.116199
  O 6.414440 -0.807175 -1.959760
  H 0.520862 0.557772 1.440624
  H 0.473880 -0.823292 0.334270
  H 0.472986 0.787171 -0.313951
  H 3.882431 1.374384 1.132564
  H 3.883190 -0.242352 1.782867
  H 1.915392 0.323868 3.221745
  H 1.915112 1.960794 2.563461
  H 2.217662 -0.647836 -1.560062
  H 5.107557 -0.203833 -0.455713
  H 5.149766 -2.365073 -3.515404
  H 5.150022 -0.755052 -4.161144
  H 2.713259 -0.528442 -3.657566
  H 2.713113 -2.180618 -2.995214
  H 3.432802 -1.422531 -5.863895
  H 1.924281 -2.161428 -5.339611
  H 3.432543 -3.058390 -5.208140
  H 6.777961 -0.472957 -1.120920
 29
 27.294813
  C 0.848449 0.203556 0.560840
  C 2.315816 0.150561 0.426788
  C 3.225999 0.587517 1.512189
  C 2.583625 1.102682 2.793856
  H 3.362471 1.386248 3.498334
  C 2.828542 -0.333355 -0.778226
  C 4.178587 -0.445099 -1.057424
  C 5.032298 -0.844071 -2.052944
  C 4.689270 -1.388739 -3.411142
  C 3.212170 -1.530437 -3.765607
  C 3.051669 -2.095617 -5.174727
  O 6.334905 -0.793251 -1.925373
  H 0.519788 0.588639 1.517756
  H 0.426794 -0.792885 0.412981
  H 0.425688 0.818977 -0.236072
  H 3.884903 1.365215 1.108650
  H 3.885878 -0.252367 1.759295
  H 1.972433 0.340173 3.267642
  H 1.971805 1.980693 2.607943
  H 2.120504 -0.636583 -1.532370
  H 5.097910 -0.251086 -0.574890
  H 5.180960 -2.364359 -3.505980
  H 5.181567 -0.749685 -4.153928
  H 2.726746 -0.555711 -3.722778
  H 2.726219 -2.205110 -3.061179
  H 3.514043 -1.441583 -5.909978
  H 1.999157 -2.196400 -5.427264
  H 3.513269 -3.076825 -5.254010
  H 6.694133 -0.450553 -1.065091
 29
 42.363328
  C 0.835744 0.206028 0.567526
  C 2.295760 0.147548 0.419354
  C 3.218286 0.578439 1.489127
  C 2.594532 1.095996 2.776855
  H 3.388003 1.377403 3.475552
  C 2.794400 -0.334238 -0.780188
  C 4.137950 -0.446593 -1.060910
  C 5.035748 -0.839604 -2.041590
  C 4.720859 -1.388553 -3.410493
  C 3.236494 -1.522440 -3.746021
  C 3.052831 -2.087387 -5.154594
  O 6.353570 -0.788771 -1.913760
  H 0.519125 0.592473 1.527585
  H 0.409404 -0.788047 0.424222
  H 0.408100 0.822559 -0.224611
  H 3.875381 1.351753 1.076497
  H 3.876632 -0.264389 1.726546
  H 1.985714 0.337526 3.257465
  H 1.984866 1.975542 2.598670
  H 2.087486 -0.634222 -1.526030
  H 5.110706 -0.289437 -0.670248
  H 5.213479 -2.362874 -3.507874
  H 5.214307 -0.752297 -4.154294
  H 2.756838 -0.544042 -3.694088
  H 2.756004 -2.193338 -3.032475
  H 3.508925 -1.436072 -5.896271
  H 1.996042 -2.182238 -5.392802
  H 3.507859 -3.071257 -5.240337
  H 6.727957 -0.449938 -1.062888
 29
 55.881134
  C 0.836876 0.216008 0.594603
  C 2.288035 0.152098 0.431957
  C 3.218026 0.579015 1.489483
  C 2.606492 1.098175 2.779744
  H 3.397464 1.374106 3.463156
  C 2.774124 -0.332787 -0.774005
  C 4.116440 -0.447666 -1.061647
  C 5.030988 -0.834495 -2.027069
  C 4.727954 -1.389160 -3.411775
  C 3.244853 -1.529702 -3.765127
  C 3.076328 -2.095369 -5.176812
  O 6.353877 -0.783065 -1.897088
  H 0.531871 0.604244 1.557931
  H 0.407136 -0.774381 0.456791
  H 0.405290 0.832577 -0.191536
  H 3.871235 1.346796 1.071823
  H 3.872915 -0.262593 1.720134
  H 1.996481 0.337576 3.268644
  H 1.995048 1.984470 2.605291
  H 2.058230 -0.628746 -1.508225
  H 5.109198 -0.320032 -0.745708
  H 5.223524 -2.361213 -3.505299
  H 5.224798 -0.751667 -4.150780
  H 2.759630 -0.550846 -3.717134
  H 2.758377 -2.203889 -3.054636
  H 3.538161 -1.441065 -5.915006
  H 2.021046 -2.194235 -5.425905
  H 3.536690 -3.079187 -5.258456
  H 6.729959 -0.448830 -1.056813
 29
 66.009549
  C 0.820468 0.215028 0.606224
  C 2.279308 0.152250 0.437904
  C 3.216243 0.584199 1.493672
  C 2.612251 1.106733 2.786025
  H 3.410359 1.386766 3.468758
  C 2.763151 -0.336687 -0.771020
  C 4.102557 -0.451091 -1.061335
  C 5.037694 -0.842605 -2.039720
  C 4.737475 -1.389757 -3.413111
  C 3.257798 -1.527874 -3.767586
  C 3.091496 -2.091353 -5.179998
  O 6.363686 -0.798070 -1.916696
  H 0.517856 0.605681 1.569192
  H 0.390336 -0.778282 0.472799
  H 0.383932 0.829787 -0.181768
  H 3.868422 1.353762 1.069141
  H 3.874377 -0.259293 1.724217
  H 2.009094 0.352083 3.276859
  H 2.003232 1.986321 2.613366
  H 2.035387 -0.639099 -1.509490
  H 5.144499 -0.347398 -0.811329
  H 5.232502 -2.365334 -3.504517
  H 5.236572 -0.748189 -4.151003
  H 2.774321 -0.550197 -3.718376
  H 2.770726 -2.201150 -3.059461
  H 3.554417 -1.437065 -5.915939
  H 2.037034 -2.188841 -5.430467
  H 3.550534 -3.074505 -5.262228
  H 6.752546 -0.467195 -1.072566
 29
 76.206355
  C 0.825634 0.198306 0.605145
  C 2.285119 0.143435 0.440604
  C 3.219948 0.593583 1.496633
  C 2.606274 1.130744 2.792892
  H 3.400738 1.422709 3.473545
  C 2.774757 -0.355073 -0.762502
  C 4.116784 -0.461290 -1.045945
  C 5.044664 -0.851936 -2.030408
  C 4.738293 -1.391264 -3.415615
  C 3.257006 -1.523790 -3.775246
  C 3.092502 -2.074794 -5.184864
  O 6.377252 -0.817398 -1.917698
  H 0.518360 0.596174 1.561065
  H 0.402700 -0.799038 0.481396
  H 0.386938 0.801566 -0.190249
  H 3.871884 1.365986 1.061214
  H 3.886644 -0.248584 1.737689
  H 2.000944 0.371051 3.295965
  H 1.985870 2.013391 2.608651
  H 2.051528 -0.668319 -1.491843
  H 5.166426 -0.377698 -0.866044
  H 5.231083 -2.370809 -3.509638
  H 5.240609 -0.743803 -4.149786
  H 2.780426 -0.557104 -3.721184
  H 2.771634 -2.192401 -3.081189
  H 3.556371 -1.419934 -5.911736
  H 2.042696 -2.167649 -5.437128
  H 3.547088 -3.053480 -5.272070
  H 6.773192 -0.498976 -1.085701
 29
 84.127614
  C 0.833625 0.139857 0.628920
  C 2.294431 0.111052 0.459139
  C 3.215479 0.624200 1.487392
  C 2.595716 1.198569 2.747374
  H 3.387297 1.539629 3.416749
  C 2.794505 -0.429319 -0.727033
  C 4.137277 -0.511586 -1.009932
  C 5.052705 -0.894838 -2.019132
  C 4.733948 -1.388108 -3.412117
  C 3.262912 -1.490854 -3.773891
  C 3.096224 -2.007941 -5.203646
  O 6.391336 -0.895708 -1.918131
  H 0.520052 0.574137 1.574112
  H 0.433093 -0.872113 0.550913
  H 0.377735 0.698182 -0.190119
  H 3.843632 1.382454 1.021081
  H 3.894103 -0.182176 1.762191
  H 2.010984 0.451594 3.280160
  H 1.959327 2.052229 2.525200
  H 2.065429 -0.802371 -1.445823
  H 5.206309 -0.426655 -0.903849
  H 5.207828 -2.364056 -3.523736
  H 5.241111 -0.740521 -4.128688
  H 2.792079 -0.503101 -3.696512
  H 2.759798 -2.181614 -3.086486
  H 3.575961 -1.334324 -5.920558
  H 2.039153 -2.081399 -5.462529
  H 3.543301 -3.001075 -5.314154
  H 6.810008 -0.607448 -1.068462
 29
 88.587432
  C 0.839116 0.001527 0.673595
  C 2.301195 0.027085 0.480424
  C 3.215592 0.686709 1.442008
  C 2.582890 1.359934 2.652794
  H 3.360493 1.800254 3.265575
  C 2.811764 -0.601772 -0.649432
  C 4.151322 -0.642706 -0.958786
  C 5.067283 -0.981693 -1.977602
  C 4.733353 -1.370651 -3.405560
  C 3.257723 -1.418578 -3.780081
  C 3.091822 -1.848597 -5.231107
  O 6.416540 -1.059587 -1.880427
  H 0.518166 0.511829 1.575406
  H 0.488289 -1.031523 0.706865
  H 0.343513 0.453181 -0.188784
  H 3.802281 1.424799 0.885959
  H 3.938162 -0.056838 1.790349
  H 2.041740 0.642791 3.270710
  H 1.902074 2.157803 2.357189
  H 2.103287 -1.085366 -1.298882
  H 5.239492 -0.510749 -0.908439
  H 5.182483 -2.359097 -3.550431
  H 5.265342 -0.702045 -4.093307
  H 2.811211 -0.436485 -3.650574
  H 2.739803 -2.130529 -3.145483
  H 3.586793 -1.152636 -5.900044
  H 2.040543 -1.884355 -5.498523
  H 3.514941 -2.835034 -5.392630
  H 6.842084 -0.860340 -1.023018
 29
 88.778769
  C 0.846312 -0.119262 0.707428
  C 2.307495 -0.043672 0.473999
  C 3.217784 0.740591 1.353160
  C 2.579816 1.481650 2.519860
  H 3.352840 2.009291 3.074776
  C 2.821597 -0.741315 -0.604225
  C 4.146768 -0.768668 -0.952045
  C 5.101161 -1.055258 -1.928003
  C 4.740027 -1.343592 -3.380873
  C 3.258517 -1.342436 -3.740830
  C 3.075088 -1.686973 -5.221757
  O 6.450438 -1.198385 -1.819703
  H 0.523062 0.454008 1.569042
  H 0.543694 -1.160485 0.841121
  H 0.310116 0.233776 -0.176710
  H 3.751289 1.459581 0.722244
  H 3.978193 0.060540 1.748063
  H 2.094072 0.794632 3.208170
  H 1.857830 2.219117 2.181295
  H 2.123046 -1.322851 -1.192914
  H 5.248351 -0.566002 -0.895540
  H 5.174888 -2.328259 -3.585171
  H 5.286571 -0.661696 -4.041009
  H 2.830136 -0.354745 -3.549855
  H 2.736356 -2.094411 -3.145448
  H 3.577890 -0.958102 -5.858719
  H 2.018462 -1.692858 -5.482278
  H 3.484329 -2.674122 -5.442946
  H 6.858518 -1.071463 -0.946492
 29
 87.237598
  C 0.866104 -0.229718 0.771397
  C 2.305123 -0.108081 0.478141
  C 3.210262 0.791221 1.249259
  C 2.573366 1.596391 2.373192
  H 3.336991 2.205466 2.851166
  C 2.816442 -0.872372 -0.557710
  C 4.118034 -0.883760 -0.961392
  C 5.113147 -1.124212 -1.898514
  C 4.756556 -1.321186 -3.369792
  C 3.279184 -1.260641 -3.719234
  C 3.076368 -1.521109 -5.207495
  O 6.456394 -1.323522 -1.767413
  H 0.548485 0.398081 1.588174
  H 0.619880 -1.263483 1.004831
  H 0.285281 0.022301 -0.114152
  H 3.676976 1.484891 0.541348
  H 4.006565 0.177380 1.678855
  H 2.151330 0.948221 3.136241
  H 1.806396 2.268806 2.002783
  H 2.131793 -1.539305 -1.067997
  H 5.230849 -0.593872 -0.904931
  H 5.163546 -2.308182 -3.614099
  H 5.324535 -0.620807 -3.989615
  H 2.877537 -0.279158 -3.470016
  H 2.741778 -2.023840 -3.161233
  H 3.591473 -0.777169 -5.808380
  H 2.020716 -1.485511 -5.456830
  H 3.455147 -2.502508 -5.481248
  H 6.840110 -1.271070 -0.871550
 29
 84.238292
  C 0.886382 -0.331403 0.891809
  C 2.300297 -0.150136 0.507167
  C 3.191834 0.856159 1.153267
  C 2.566319 1.703202 2.254802
  H 3.315181 2.392579 2.639371
  C 2.800970 -0.959439 -0.502499
  C 4.074032 -0.965291 -0.971377
  C 5.097881 -1.174943 -1.885029
  C 4.771942 -1.310612 -3.367464
  C 3.303361 -1.168863 -3.743909
  C 3.119216 -1.379487 -5.243178
  O 6.430747 -1.433827 -1.722801
  H 0.575634 0.339611 1.682307
  H 0.716023 -1.358703 1.213679
  H 0.242044 -0.178073 0.026418
  H 3.567647 1.522868 0.371203
  H 4.044166 0.317179 1.578633
  H 2.234749 1.091366 3.088640
  H 1.739318 2.300660 1.884033
  H 2.128683 -1.694666 -0.933340
  H 5.194221 -0.581523 -0.942237
  H 5.137387 -2.307564 -3.631822
  H 5.385799 -0.620617 -3.953308
  H 2.941735 -0.173568 -3.473396
  H 2.716289 -1.920694 -3.213049
  H 3.681563 -0.646022 -5.812777
  H 2.072992 -1.286191 -5.512140
  H 3.455690 -2.369478 -5.536542
  H 6.776817 -1.434519 -0.811411
