 14
 0.000000
  H 1.435020 0.139293 0.395966
  C 2.515985 0.136304 0.389181
  C 3.217040 0.613731 1.577775
  H 2.531648 0.927126 2.357665
  C 3.127667 -0.326223 -0.761639
  C 4.513782 -0.395067 -0.931863
  C 5.144899 -0.853252 -2.074720
  H 4.636703 -1.210007 -2.963588
  O 6.429965 -0.905081 -2.205876
  H 3.875807 1.447866 1.324803
  H 3.875126 -0.164079 1.972402
  H 2.498880 -0.653249 -1.577670
  H 5.144553 -0.067887 -0.114775
  H 6.944774 -0.592922 -1.431530
 14
 -0.461564
  H 1.441372 0.157898 0.358500
  C 2.521810 0.128559 0.381878
  C 3.183129 0.627254 1.584990
  H 2.467913 0.910810 2.349072
  C 3.165491 -0.354622 -0.739600
  C 4.557967 -0.426122 -0.881246
  C 5.151944 -0.844720 -2.059542
  H 4.554108 -1.149169 -2.913832
  O 6.418971 -0.894480 -2.286341
  H 3.805895 1.492909 1.345885
  H 3.873331 -0.116361 1.989423
  H 2.560900 -0.685227 -1.571988
  H 5.187983 -0.124919 -0.055677
  H 6.992031 -0.622330 -1.538321
 14
 -0.480853
  H 1.439273 0.148626 0.349485
  C 2.523052 0.121705 0.380008
  C 3.173923 0.632572 1.583599
  H 2.456590 0.837199 2.372454
  C 3.175598 -0.361232 -0.736221
  C 4.567548 -0.436111 -0.871753
  C 5.157167 -0.840446 -2.057080
  H 4.545676 -1.121500 -2.910155
  O 6.421342 -0.896576 -2.294028
  H 3.703392 1.561602 1.353324
  H 3.941830 -0.052756 1.947197
  H 2.575412 -0.685022 -1.573404
  H 5.198047 -0.151085 -0.038834
  H 7.003439 -0.656751 -1.539950
 14
 -0.333617
  H 1.438705 0.121269 0.340079
  C 2.519383 0.105161 0.374692
  C 3.159206 0.645760 1.569250
  H 2.448929 0.785096 2.377970
  C 3.181435 -0.379906 -0.733016
  C 4.574987 -0.467901 -0.854678
  C 5.171956 -0.815719 -2.053483
  H 4.563768 -1.026080 -2.926760
  O 6.438388 -0.883161 -2.281330
  H 3.598210 1.622183 1.338047
  H 3.992810 0.024674 1.901414
  H 2.587376 -0.686805 -1.583378
  H 5.197184 -0.236054 -0.002514
  H 7.015907 -0.708426 -1.507247
 14
 -0.221771
  H 1.431091 0.112655 0.298938
  C 2.512098 0.104184 0.347773
  C 3.131754 0.659061 1.548201
  H 2.411893 0.785730 2.350056
  C 3.193941 -0.377830 -0.750985
  C 4.588390 -0.478954 -0.846040
  C 5.202425 -0.809672 -2.039957
  H 4.604491 -0.976241 -2.930179
  O 6.470775 -0.900880 -2.244438
  H 3.550781 1.645559 1.316924
  H 3.976350 0.058602 1.886679
  H 2.613903 -0.681035 -1.610398
  H 5.196114 -0.287833 0.027960
  H 7.035057 -0.765096 -1.453790
 14
 -0.361020
  H 1.436910 0.139830 0.272989
  C 2.515527 0.110081 0.331810
  C 3.136560 0.642947 1.542928
  H 2.413254 0.778969 2.340025
  C 3.195568 -0.378420 -0.763942
  C 4.592284 -0.469595 -0.856301
  C 5.208877 -0.826977 -2.042338
  H 4.612797 -1.047658 -2.921913
  O 6.478103 -0.893444 -2.251593
  H 3.577042 1.621573 1.323016
  H 3.964352 0.023084 1.885592
  H 2.618985 -0.687906 -1.624556
  H 5.199422 -0.237692 0.008240
  H 7.046483 -0.707329 -1.473847
 14
 -0.387142
  H 1.439697 0.215373 0.241472
  C 2.515398 0.135679 0.325475
  C 3.132078 0.617069 1.559054
  H 2.395580 0.775990 2.342023
  C 3.199018 -0.365505 -0.766003
  C 4.596643 -0.452178 -0.863576
  C 5.210971 -0.863837 -2.035495
  H 4.611558 -1.175121 -2.887358
  O 6.477411 -0.899191 -2.261401
  H 3.623873 1.578829 1.369248
  H 3.919046 -0.050658 1.910278
  H 2.618438 -0.684993 -1.623991
  H 5.208083 -0.151903 -0.024451
  H 7.048371 -0.612092 -1.515164
