19
 0
 C -1.77051209 0.95503582 -0.68039381
 C -1.08014558 -0.19045864 0.04987881
 C -1.50357848 -0.20860036 1.51770815
 C -1.27880563 -1.58407064 -0.54861476
 C -2.22526317 -1.81344233 -1.69909315
 O -0.67209529 -2.55012697 -0.07175606
 H -1.51403290 1.91610427 -0.22131056
 H -2.86082807 0.85400521 -0.64956808
 H -1.45851711 0.99920753 -1.72909679
 H 0.00000000 0.00000000 0.00000000
 H -2.57134636 -0.43186511 1.61853284
 H -1.30840956 0.75836050 1.99351952
 H -0.95298405 -0.97174624 2.07851770
 H -2.66146438 -0.89684756 -2.09182808
 H -3.03829103 -2.46356100 -1.36504098
 H -1.67598206 -2.29697219 -2.51219176
 O 2.30000000 0.00000000 0.00000000
 H 3.02318977 0.64263783 0.05458952
 H 2.75036323 -0.84956671 -0.11985406
