 19
 0.000000
  C -1.762038 0.949354 -0.703693
  C -1.095544 -0.171581 0.041603
  C -1.521407 -0.246614 1.492479
  C -1.254487 -1.617103 -0.523464
  C -2.200389 -1.774615 -1.662225
  O -0.666544 -2.524389 -0.026427
  H -1.489574 1.894912 -0.233942
  H -2.848366 0.889114 -0.660971
  H -1.432581 1.002627 -1.738030
  H -0.004477 -0.010510 -0.008626
  H -2.585096 -0.455768 1.604392
  H -1.334544 0.716124 1.965404
  H -0.967949 -1.020777 2.020526
  H -2.611803 -0.844107 -2.029739
  H -3.002995 -2.430013 -1.320868
  H -1.660874 -2.287872 -2.458707
  O 2.265749 -0.002060 -0.023828
  H 2.969160 0.652850 0.025810
  H 2.705058 -0.851478 -0.135695
 19
 -0.670559
  C -1.746468 0.959408 -0.712456
  C -1.076261 -0.156022 0.034238
  C -1.515786 -0.258371 1.479061
  C -1.222687 -1.615803 -0.529898
  C -2.198676 -1.771096 -1.640140
  O -0.607504 -2.509917 -0.044073
  H -1.464430 1.903268 -0.243189
  H -2.833089 0.910207 -0.656389
  H -1.418989 1.013468 -1.750838
  H 0.018897 -0.014168 -0.012070
  H -2.581383 -0.460573 1.579544
  H -1.338164 0.701784 1.963298
  H -0.963615 -1.033568 2.003362
  H -2.635226 -0.845790 -1.986844
  H -2.975855 -2.448265 -1.281613
  H -1.676665 -2.274201 -2.454655
  O 2.174432 -0.026297 -0.001541
  H 2.862609 0.646703 0.039799
  H 2.617740 -0.867726 -0.148385
 19
 -1.447166
  C -1.704155 0.955109 -0.708206
  C -1.060847 -0.170946 0.041342
  C -1.459883 -0.247985 1.495309
  C -1.220633 -1.627945 -0.514806
  C -2.158049 -1.769676 -1.661987
  O -0.649595 -2.535457 -0.000037
  H -1.405624 1.894279 -0.238397
  H -2.791366 0.930761 -0.647105
  H -1.378499 1.000161 -1.743057
  H 0.044369 -0.068558 -0.050727
  H -2.528163 -0.425683 1.624405
  H -1.254921 0.712596 1.968284
  H -0.914329 -1.035522 2.009834
  H -2.558479 -0.837220 -2.033127
  H -2.964901 -2.424759 -1.328462
  H -1.620434 -2.297935 -2.450886
  O 2.005391 -0.027352 -0.054874
  H 2.635279 0.692758 0.036826
  H 2.491061 -0.854410 -0.113122
 19
 -2.029511
  C -1.667597 0.951025 -0.691244
  C -1.060000 -0.194142 0.059886
  C -1.415276 -0.233235 1.524400
  C -1.234161 -1.638256 -0.491608
  C -2.102853 -1.768619 -1.695691
  O -0.733906 -2.566873 0.066960
  H -1.357766 1.883183 -0.217044
  H -2.756180 0.947112 -0.635257
  H -1.340783 0.987796 -1.725766
  H 0.059712 -0.117237 -0.052627
  H -2.484085 -0.386360 1.682632
  H -1.178355 0.725960 1.982564
  H -0.883540 -1.035006 2.032105
  H -2.447477 -0.828953 -2.102467
  H -2.952287 -2.389871 -1.408343
  H -1.537194 -2.326842 -2.442432
  O 1.837906 -0.031612 -0.163902
  H 2.402997 0.728474 0.004309
  H 2.354245 -0.840350 -0.107424
 19
 -2.510508
  C -1.638455 0.948136 -0.675848
  C -1.062136 -0.216186 0.071022
  C -1.350374 -0.219057 1.548144
  C -1.254924 -1.642778 -0.475683
  C -2.056752 -1.771151 -1.728445
  O -0.819880 -2.589357 0.120200
  H -1.329728 1.873807 -0.191307
  H -2.728675 0.950573 -0.633408
  H -1.309995 0.982325 -1.709747
  H 0.084318 -0.154143 -0.074347
  H -2.415823 -0.352253 1.746843
  H -1.078496 0.737244 1.989960
  H -0.825690 -1.034175 2.042998
  H -2.352291 -0.828549 -2.165591
  H -2.938665 -2.365341 -1.488726
  H -1.466114 -2.353079 -2.435856
  O 1.681675 -0.032981 -0.260586
  H 2.163592 0.752611 0.022569
  H 2.203975 -0.823696 -0.089210
 19
 -2.538771
  C -1.617512 0.945885 -0.662975
  C -1.078236 -0.233820 0.084881
  C -1.285902 -0.197933 1.572186
  C -1.281750 -1.640730 -0.455089
  C -2.000585 -1.781128 -1.758533
  O -0.912285 -2.599351 0.182734
  H -1.321323 1.866826 -0.164764
  H -2.709437 0.944538 -0.652434
  H -1.275937 0.979222 -1.692942
  H 0.121319 -0.173261 -0.083219
  H -2.345077 -0.310997 1.816019
  H -0.976265 0.755388 1.992532
  H -0.767194 -1.024635 2.055127
  H -2.244125 -0.841313 -2.232322
  H -2.911443 -2.349587 -1.574705
  H -1.380723 -2.388654 -2.416655
  O 1.531898 -0.033864 -0.351892
  H 1.933608 0.757013 0.036131
  H 2.038424 -0.813932 -0.087782
 19
 -2.508758
  C -1.620956 0.942494 -0.652427
  C -1.124512 -0.250882 0.093146
  C -1.247580 -0.195801 1.583319
  C -1.308785 -1.624204 -0.450225
  C -1.980480 -1.783212 -1.782363
  O -0.948081 -2.598350 0.197232
  H -1.319515 1.856268 -0.145499
  H -2.713357 0.951816 -0.665912
  H -1.269400 0.972475 -1.679900
  H 0.265431 -0.165323 -0.106114
  H -2.296768 -0.300195 1.872146
  H -0.909274 0.755463 1.985410
  H -0.720669 -1.027717 2.048613
  H -2.220608 -0.848983 -2.269078
  H -2.891475 -2.360127 -1.630786
  H -1.335532 -2.384738 -2.420908
  O 1.432411 -0.032364 -0.354125
  H 1.805122 0.765971 0.061420
  H 1.941033 -0.816553 -0.084665
 19
 -5.524378
  C -1.644200 0.938849 -0.644027
  C -1.198639 -0.266377 0.106499
  C -1.242750 -0.191246 1.595998
  C -1.352788 -1.613520 -0.437817
  C -1.970829 -1.788846 -1.798273
  O -0.999885 -2.598900 0.219144
  H -1.332785 1.845329 -0.130412
  H -2.735618 0.970338 -0.684019
  H -1.276119 0.959124 -1.666436
  H 0.414235 -0.157035 -0.113549
  H -2.279360 -0.282551 1.931557
  H -0.876284 0.759440 1.974459
  H -0.708172 -1.027224 2.045204
  H -2.211846 -0.859347 -2.294154
  H -2.876819 -2.380793 -1.680840
  H -1.294041 -2.377366 -2.415295
  O 1.420175 -0.030550 -0.360700
  H 1.796103 0.773623 0.051760
  H 1.945776 -0.815770 -0.107470
 19
 -7.116798
  C -1.697903 0.939136 -0.617429
  C -1.308017 -0.286722 0.123839
  C -1.247438 -0.213643 1.609408
  C -1.406148 -1.613153 -0.447287
  C -1.958535 -1.782058 -1.838229
  O -1.048569 -2.608145 0.204253
  H -1.374519 1.830716 -0.086331
  H -2.787354 0.999393 -0.684981
  H -1.312687 0.957535 -1.633907
  H 0.443896 -0.130810 -0.088528
  H -2.260983 -0.302456 2.011778
  H -0.854148 0.733997 1.967459
  H -0.694064 -1.057761 2.019469
  H -2.220504 -0.850616 -2.320589
  H -2.843570 -2.412823 -1.774236
  H -1.233849 -2.324796 -2.442372
  O 1.402783 0.005366 -0.369479
  H 1.790514 0.811463 0.031174
  H 1.949709 -0.779529 -0.161123
 19
 -6.753852
  C -1.689229 0.942564 -0.638530
  C -1.290922 -0.275401 0.111378
  C -1.240763 -0.192642 1.597515
  C -1.383250 -1.608074 -0.449332
  C -1.976343 -1.793101 -1.821336
  O -0.989187 -2.592313 0.195287
  H -1.344508 1.839186 -0.129315
  H -2.779497 1.013693 -0.677533
  H -1.328561 0.942053 -1.663855
  H 0.434919 -0.114285 -0.074141
  H -2.255926 -0.288680 1.993925
  H -0.858603 0.760869 1.952059
  H -0.681705 -1.028547 2.016482
  H -2.267614 -0.868311 -2.300055
  H -2.849592 -2.436414 -1.724919
  H -1.263123 -2.328796 -2.445363
  O 1.405290 -0.026031 -0.344686
  H 1.829999 0.778916 0.018415
  H 1.920574 -0.826758 -0.120071
 19
 -8.666541
  C -1.707037 0.914406 -0.612425
  C -1.449860 -0.319670 0.166439
  C -1.271564 -0.213670 1.636478
  C -1.548466 -1.636218 -0.397338
  C -1.975793 -1.803661 -1.834685
  O -1.286435 -2.643319 0.291193
  H -1.422325 1.797879 -0.047977
  H -2.775745 1.002813 -0.821988
  H -1.206006 0.909870 -1.578222
  H 0.603597 -0.069641 -0.028040
  H -2.257123 -0.213647 2.113690
  H -0.785247 0.711256 1.939424
  H -0.758447 -1.091082 2.027853
  H -2.229337 -0.872872 -2.323554
  H -2.839857 -2.466185 -1.857648
  H -1.182733 -2.309121 -2.384984
  O 1.495061 0.054567 -0.430888
  H 1.921795 0.871113 -0.092213
  H 2.067481 -0.724887 -0.269192
