 19
 0.000000
  C -0.150396 -0.851728 -2.452285
  C 0.145363 -1.182208 -1.016912
  C 1.530865 -1.734884 -0.792983
  C 0.015668 -0.017435 0.044426
  C -0.214127 1.335045 -0.516507
  O 0.136784 -0.261818 1.199115
  H -0.105015 -1.776984 -3.031153
  H 0.593691 -0.187662 -2.888839
  H -1.152589 -0.450031 -2.586758
  H -0.619685 -1.878047 -0.637460
  H 2.310523 -1.020631 -1.063739
  H 1.675489 -2.600443 -1.438689
  H 1.682357 -2.017815 0.246073
  H -0.354659 1.362170 -1.589017
  H 0.655410 1.932892 -0.234093
  H -1.081890 1.751838 -0.003222
  O 4.093960 0.043237 0.001153
  H 4.662732 -0.385460 -0.647425
  H 4.665464 0.298298 0.730639
 19
 0.628956
  C -0.168137 -0.867116 -2.448031
  C 0.161666 -1.212207 -1.026971
  C 1.532751 -1.769774 -0.829056
  C 0.118965 -0.033624 0.050004
  C -0.075379 1.322947 -0.513675
  O 0.257142 -0.291661 1.199917
  H -0.172928 -1.794568 -3.025885
  H 0.583501 -0.230548 -2.910164
  H -1.159629 -0.433770 -2.549973
  H -0.615761 -1.877058 -0.623426
  H 2.246705 -1.014933 -1.097851
  H 1.698539 -2.629314 -1.477443
  H 1.702002 -2.053488 0.206801
  H -0.229720 1.353868 -1.582678
  H 0.817099 1.893135 -0.244498
  H -0.920750 1.770095 0.011725
  O 3.854619 0.116143 0.023316
  H 4.464433 -0.276985 -0.610233
  H 4.391673 0.398378 0.776141
 19
 0.613607
  C -0.217767 -0.896643 -2.428416
  C 0.165894 -1.244989 -1.025397
  C 1.554699 -1.790901 -0.895142
  C 0.209703 -0.047875 0.048261
  C 0.083914 1.314057 -0.523850
  O 0.355439 -0.310689 1.194730
  H -0.283318 -1.829736 -2.991487
  H 0.531165 -0.292572 -2.932098
  H -1.197168 -0.433797 -2.489058
  H -0.603083 -1.882608 -0.575414
  H 2.238733 -0.997198 -1.161934
  H 1.720755 -2.622787 -1.584295
  H 1.763229 -2.099818 0.126641
  H -0.075754 1.347842 -1.590837
  H 1.009536 1.834935 -0.263576
  H -0.731175 1.812621 0.004121
  O 3.601170 0.189785 0.070727
  H 4.295571 -0.150961 -0.515117
  H 4.050610 0.489047 0.866095
 19
 0.455421
  C -0.278742 -0.914983 -2.403173
  C 0.195242 -1.261882 -1.021879
  C 1.589128 -1.803380 -0.967472
  C 0.308059 -0.055486 0.040313
  C 0.241321 1.298371 -0.546218
  O 0.452582 -0.319993 1.184509
  H -0.417845 -1.856357 -2.946564
  H 0.452648 -0.338926 -2.970605
  H -1.249132 -0.417075 -2.398564
  H -0.542630 -1.895181 -0.521166
  H 2.252256 -1.006678 -1.248216
  H 1.726482 -2.614064 -1.681701
  H 1.843857 -2.138137 0.034764
  H 0.072824 1.327079 -1.612825
  H 1.192611 1.768849 -0.303734
  H -0.538755 1.841782 -0.019618
  O 3.347753 0.255037 0.128232
  H 4.123738 -0.010202 -0.381904
  H 3.682858 0.553237 0.975968
 19
 0.459594
  C -0.319444 -0.921657 -2.364789
  C 0.244762 -1.267180 -1.015622
  C 1.631060 -1.822059 -1.048529
  C 0.416968 -0.047386 0.032441
  C 0.364936 1.295872 -0.574669
  O 0.550328 -0.309443 1.178058
  H -0.535444 -1.863562 -2.875496
  H 0.385735 -0.381909 -2.993121
  H -1.265259 -0.388856 -2.297033
  H -0.458903 -1.897278 -0.461474
  H 2.297366 -1.047858 -1.380952
  H 1.700298 -2.641380 -1.768003
  H 1.941681 -2.166143 -0.067320
  H 0.184286 1.309972 -1.635941
  H 1.332647 1.753134 -0.354204
  H -0.402332 1.861343 -0.044530
  O 3.100493 0.294826 0.181338
  H 3.947158 0.105560 -0.241653
  H 3.311170 0.571092 1.079845
 19
 3.477191
  C -0.321169 -0.912129 -2.321284
  C 0.315398 -1.260988 -1.002758
  C 1.682590 -1.853292 -1.113640
  C 0.537727 -0.012716 0.040374
  C 0.438212 1.323531 -0.585773
  O 0.606098 -0.272734 1.193800
  H -0.597364 -1.855026 -2.802789
  H 0.357848 -0.401240 -2.996611
  H -1.242897 -0.352282 -2.204117
  H -0.363866 -1.874337 -0.403949
  H 2.344252 -1.121566 -1.530106
  H 1.665436 -2.705374 -1.804513
  H 2.051773 -2.183029 -0.151709
  H 0.271408 1.315806 -1.654451
  H 1.367935 1.839032 -0.364904
  H -0.366831 1.848474 -0.074219
  O 2.877294 0.277906 0.189562
  H 3.762314 0.129818 -0.167617
  H 2.998098 0.526230 1.113528
 19
 8.410295
  C -0.306100 -0.893761 -2.267020
  C 0.383949 -1.256154 -0.988072
  C 1.730104 -1.889019 -1.166583
  C 0.651348 0.025143 0.056882
  C 0.483918 1.355314 -0.589593
  O 0.577002 -0.227096 1.215636
  H -0.630445 -1.829099 -2.724948
  H 0.351679 -0.401142 -2.978102
  H -1.207914 -0.309993 -2.105840
  H -0.280039 -1.855522 -0.354599
  H 2.376597 -1.199569 -1.655773
  H 1.633070 -2.764146 -1.816750
  H 2.149990 -2.210407 -0.220974
  H 0.419605 1.325519 -1.669468
  H 1.324956 1.978285 -0.295341
  H -0.423194 1.784977 -0.162899
  O 2.700600 0.248335 0.166227
  H 3.590143 0.103810 -0.180611
  H 2.794876 0.476342 1.103820
 19
 11.304626
  C -0.304464 -0.880761 -2.212019
  C 0.440226 -1.255012 -0.965343
  C 1.772516 -1.910927 -1.213758
  C 0.749642 0.058758 0.071785
  C 0.517048 1.380354 -0.606178
  O 0.529818 -0.171499 1.230294
  H -0.669693 -1.814773 -2.652318
  H 0.327294 -0.397958 -2.953246
  H -1.184686 -0.280214 -2.010217
  H -0.201282 -1.852195 -0.308673
  H 2.397268 -1.233166 -1.744292
  H 1.615237 -2.789230 -1.846067
  H 2.237648 -2.245561 -0.293159
  H 0.609704 1.343471 -1.682378
  H 1.234811 2.091339 -0.203765
  H -0.483983 1.700394 -0.318666
  O 2.559089 0.235827 0.175737
  H 3.423236 0.043826 -0.220140
  H 2.678550 0.427777 1.120271
 19
 10.234883
  C -0.308277 -0.877159 -2.147868
  C 0.500020 -1.235714 -0.931393
  C 1.820684 -1.900379 -1.264691
  C 0.833370 0.092044 0.079055
  C 0.538184 1.399388 -0.644999
  O 0.447793 -0.101460 1.230198
  H -0.686593 -1.813060 -2.565693
  H 0.283438 -0.389565 -2.916648
  H -1.181187 -0.278482 -1.909708
  H -0.106254 -1.848872 -0.257752
  H 2.423179 -1.234507 -1.842652
  H 1.607155 -2.775526 -1.884010
  H 2.336571 -2.254699 -0.379066
  H 0.800872 1.368375 -1.694326
  H 1.113403 2.174388 -0.139738
  H -0.517187 1.616015 -0.519225
  O 2.440930 0.247989 0.232720
  H 3.189954 -0.112525 -0.277340
  H 2.638759 0.334174 1.187566
 19
 10.098037
  C -0.319231 -0.890867 -2.093056
  C 0.552613 -1.223297 -0.909160
  C 1.866201 -1.874117 -1.311269
  C 0.901129 0.130210 0.087393
  C 0.558951 1.416814 -0.683845
  O 0.381114 -0.040135 1.221454
  H -0.685876 -1.830948 -2.496832
  H 0.224592 -0.378219 -2.886158
  H -1.195352 -0.320815 -1.816385
  H -0.008616 -1.856439 -0.213077
  H 2.448902 -1.216207 -1.926968
  H 1.618392 -2.741579 -1.923664
  H 2.421143 -2.252636 -0.457833
  H 0.926987 1.395150 -1.701790
  H 1.032534 2.231527 -0.132037
  H -0.509999 1.568365 -0.666577
  O 2.352907 0.245197 0.273485
  H 2.979759 -0.262536 -0.287798
  H 2.565248 0.209554 1.236835
 19
 15.601093
  C -0.345131 -0.921609 -2.057239
  C 0.571568 -1.243566 -0.910320
  C 1.901653 -1.852840 -1.353758
  C 0.940668 0.157410 0.102732
  C 0.589820 1.418245 -0.713485
  O 0.333672 -0.005314 1.211173
  H -0.700038 -1.867186 -2.465850
  H 0.151853 -0.382719 -2.854190
  H -1.229946 -0.379769 -1.738167
  H 0.052715 -1.885874 -0.196854
  H 2.455366 -1.168672 -1.964203
  H 1.662028 -2.708630 -1.984104
  H 2.479254 -2.246530 -0.523467
  H 1.014258 1.390857 -1.709192
  H 1.013322 2.249372 -0.154596
  H -0.486987 1.549560 -0.759420
  O 2.280912 0.225375 0.310960
  H 2.882951 -0.305752 -0.267574
  H 2.483165 0.117832 1.278307
 19
 23.675537
  C -0.382075 -0.964718 -2.025772
  C 0.574554 -1.293102 -0.925292
  C 1.929166 -1.833074 -1.403186
  C 0.958099 0.190078 0.133680
  C 0.626093 1.411831 -0.741247
  O 0.276967 0.020063 1.198459
  H -0.729626 -1.910212 -2.452371
  H 0.072078 -0.387599 -2.823943
  H -1.268637 -0.456539 -1.656138
  H 0.099471 -1.940327 -0.190252
  H 2.449569 -1.101243 -1.991511
  H 1.715986 -2.674985 -2.066093
  H 2.530798 -2.234904 -0.594513
  H 1.101350 1.362901 -1.712905
  H 1.012183 2.269155 -0.190190
  H -0.444347 1.530923 -0.849129
  O 2.225683 0.207689 0.366323
  H 2.841270 -0.294378 -0.233611
  H 2.418008 0.034486 1.330374
 19
 31.648182
  C -0.417908 -1.022191 -2.019100
  C 0.567011 -1.370736 -0.961506
  C 1.950672 -1.832377 -1.454871
  C 0.966925 0.236063 0.179861
  C 0.654980 1.414451 -0.746284
  O 0.253733 0.052519 1.207207
  H -0.766105 -1.956130 -2.471268
  H 0.004360 -0.410397 -2.808762
  H -1.299881 -0.541021 -1.603184
  H 0.127505 -2.018739 -0.208278
  H 2.440434 -1.050157 -2.006160
  H 1.781896 -2.655078 -2.152201
  H 2.567377 -2.233016 -0.657071
  H 1.162401 1.341043 -1.700800
  H 1.018001 2.293575 -0.212460
  H -0.412250 1.526205 -0.896740
  O 2.196827 0.209228 0.413892
  H 2.823657 -0.258082 -0.205671
  H 2.386177 -0.016778 1.367842
 19
 35.881328
  C -0.451217 -1.100802 -2.024151
  C 0.561141 -1.491825 -1.022118
  C 1.959826 -1.845342 -1.520858
  C 0.970474 0.322630 0.257396
  C 0.685968 1.428699 -0.739899
  O 0.232038 0.111020 1.233077
  H -0.817385 -2.008169 -2.519238
  H -0.055585 -0.445686 -2.792943
  H -1.318853 -0.643935 -1.550349
  H 0.162409 -2.131936 -0.245223
  H 2.420388 -0.997425 -2.011889
  H 1.854718 -2.630626 -2.271427
  H 2.588266 -2.249588 -0.734825
  H 1.232341 1.310476 -1.669314
  H 1.020262 2.343136 -0.245432
  H -0.375313 1.523163 -0.943205
  O 2.187606 0.230414 0.475413
  H 2.801269 -0.207780 -0.181203
  H 2.383359 -0.071218 1.408432
