 22
 0.000000
  C 0.999753 0.058392 0.184707
  C 2.504101 0.056817 0.163905
  C 3.290268 -0.012298 1.449957
  C 2.498667 -0.096405 2.752468
  C 3.441234 -0.161227 3.950032
  C 3.124662 0.122391 -1.021130
  H 2.513122 0.173128 -1.910861
  C 4.548258 0.133161 -1.256148
  C 5.083679 0.200549 -2.474291
  H 6.147541 0.207197 -2.631740
  H 0.598187 0.016604 1.191005
  H 0.610175 -0.797934 -0.366811
  H 0.618759 0.956812 -0.296755
  H 3.935543 0.871755 1.503675
  H 3.950271 -0.885578 1.400116
  H 1.869224 -0.988919 2.752720
  H 1.856065 0.780072 2.859855
  H 4.084940 -1.036304 3.884473
  H 2.876294 -0.221244 4.877809
  H 4.071490 0.725067 3.990207
  H 5.198405 0.083545 -0.391762
  H 4.468796 0.251522 -3.357848
 22
 3.838091
  C 1.002064 0.097722 0.200679
  C 2.481653 0.066816 0.164377
  C 3.280752 -0.000591 1.449352
  C 2.494136 -0.104546 2.751892
  C 3.439190 -0.167033 3.946557
  C 3.103487 0.126468 -1.024332
  H 2.494906 0.181496 -1.919807
  C 4.527549 0.120673 -1.256556
  C 5.066784 0.182881 -2.469271
  H 6.131964 0.181122 -2.621731
  H 0.569052 0.025908 1.184110
  H 0.824987 -0.780331 -0.367529
  H 0.592656 0.963688 -0.308258
  H 3.913517 0.890138 1.506766
  H 3.952684 -0.861640 1.391724
  H 1.875949 -1.004969 2.744644
  H 1.841610 0.763448 2.866208
  H 4.093713 -1.033268 3.872936
  H 2.876988 -0.241162 4.874714
  H 4.058617 0.726514 3.992045
  H 5.173620 0.065756 -0.391557
  H 4.456361 0.239644 -3.355535
 22
 11.244631
  C 0.990649 0.134508 0.213370
  C 2.475385 0.093127 0.170601
  C 3.283522 0.025328 1.445455
  C 2.490887 -0.112423 2.748987
  C 3.432213 -0.177376 3.951165
  C 3.095993 0.145276 -1.020589
  H 2.491075 0.219542 -1.910608
  C 4.511843 0.101346 -1.258756
  C 5.048285 0.159061 -2.476821
  H 6.110253 0.130171 -2.633599
  H 0.536901 0.037111 1.183034
  H 1.023875 -0.779470 -0.343888
  H 0.556828 0.945636 -0.345845
  H 3.895658 0.933459 1.511335
  H 3.976182 -0.820734 1.377086
  H 1.886241 -1.023981 2.723498
  H 1.821659 0.743865 2.871743
  H 4.102237 -1.031855 3.868608
  H 2.865990 -0.274765 4.875838
  H 4.036926 0.726167 4.013423
  H 5.161374 0.023794 -0.397521
  H 4.436507 0.239254 -3.358993
 22
 21.796564
  C 0.962110 0.158435 0.225392
  C 2.464677 0.097072 0.167687
  C 3.275496 0.028768 1.436796
  C 2.489228 -0.118399 2.740904
  C 3.437457 -0.182649 3.939745
  C 3.088262 0.145658 -1.023775
  H 2.487374 0.223540 -1.914739
  C 4.504594 0.094852 -1.254476
  C 5.048985 0.149348 -2.468503
  H 6.110770 0.114244 -2.617742
  H 0.500215 0.053528 1.190482
  H 1.158641 -0.751840 -0.304497
  H 0.514316 0.933224 -0.363674
  H 3.880109 0.941623 1.501333
  H 3.974519 -0.812150 1.364193
  H 1.888726 -1.034205 2.714199
  H 1.814974 0.734650 2.869813
  H 4.112699 -1.033870 3.851262
  H 2.875250 -0.286672 4.867269
  H 4.037942 0.724907 4.002715
  H 5.148772 0.013991 -0.389608
  H 4.443567 0.233344 -3.354443
 22
 32.309780
  C 0.960849 0.179041 0.240287
  C 2.463761 0.095714 0.159092
  C 3.271553 0.028794 1.441550
  C 2.483978 -0.125440 2.744445
  C 3.428463 -0.186560 3.940873
  C 3.085603 0.142445 -1.035002
  H 2.479860 0.221552 -1.929879
  C 4.501163 0.089958 -1.266826
  C 5.045578 0.143384 -2.482377
  H 6.110495 0.108334 -2.632598
  H 0.490845 0.076177 1.196734
  H 1.282156 -0.739695 -0.277862
  H 0.487303 0.933555 -0.368645
  H 3.869428 0.944971 1.510338
  H 3.976979 -0.806736 1.371450
  H 1.890507 -1.042109 2.715723
  H 1.807436 0.720961 2.874284
  H 4.106828 -1.031929 3.851614
  H 2.866904 -0.295198 4.865471
  H 4.022356 0.722117 4.005952
  H 5.145586 0.009414 -0.402508
  H 4.439080 0.227588 -3.369014
 22
 40.479517
  C 0.953694 0.198872 0.243020
  C 2.453181 0.097552 0.157849
  C 3.269149 0.027401 1.437654
  C 2.482298 -0.129189 2.737906
  C 3.429212 -0.193793 3.939897
  C 3.087127 0.147317 -1.040531
  H 2.483218 0.238931 -1.935441
  C 4.488292 0.087572 -1.267392
  C 5.039094 0.143720 -2.484037
  H 6.102220 0.101005 -2.629568
  H 0.491771 0.124312 1.200591
  H 1.370115 -0.732266 -0.191850
  H 0.476251 0.877600 -0.431767
  H 3.858115 0.943050 1.501555
  H 3.976723 -0.803821 1.368059
  H 1.886191 -1.046855 2.705613
  H 1.804988 0.718473 2.868363
  H 4.110673 -1.044002 3.849711
  H 2.864219 -0.304090 4.867574
  H 4.026560 0.718735 4.007665
  H 5.130667 -0.002321 -0.404253
  H 4.436799 0.237419 -3.372386
 22
 46.475618
  C 0.947554 0.214658 0.257128
  C 2.442078 0.099137 0.154321
  C 3.252307 0.030064 1.428633
  C 2.474393 -0.131979 2.740866
  C 3.428939 -0.201506 3.923593
  C 3.077303 0.151464 -1.044999
  H 2.472716 0.252796 -1.935989
  C 4.493232 0.084269 -1.271202
  C 5.049970 0.142166 -2.483225
  H 6.115010 0.094591 -2.623000
  H 0.499317 0.176698 1.218578
  H 1.439718 -0.743456 -0.110468
  H 0.451229 0.829545 -0.474123
  H 3.841833 0.956777 1.488901
  H 3.969373 -0.804033 1.353236
  H 1.880060 -1.046112 2.713315
  H 1.803114 0.712099 2.884627
  H 4.100867 -1.042055 3.823448
  H 2.880719 -0.313694 4.847194
  H 4.020838 0.700083 3.986952
  H 5.138946 -0.013511 -0.400376
  H 4.453738 0.243388 -3.372154
 22
 50.946141
  C 0.939643 0.229904 0.252207
  C 2.432679 0.101808 0.147636
  C 3.243269 0.033527 1.428892
  C 2.474068 -0.132877 2.738884
  C 3.437288 -0.211091 3.917641
  C 3.076759 0.156731 -1.053117
  H 2.476686 0.263389 -1.941326
  C 4.487866 0.085041 -1.270903
  C 5.054911 0.141044 -2.480272
  H 6.120221 0.083090 -2.611624
  H 0.486677 0.222566 1.215615
  H 1.496153 -0.746232 -0.052775
  H 0.437439 0.773338 -0.515208
  H 3.829178 0.960559 1.489794
  H 3.957681 -0.792176 1.353362
  H 1.876456 -1.047255 2.710064
  H 1.803948 0.715564 2.892437
  H 4.111097 -1.058984 3.808325
  H 2.889387 -0.327367 4.851301
  H 4.036133 0.695507 3.981994
  H 5.124644 -0.018423 -0.401159
  H 4.463751 0.246077 -3.376827
 22
 54.152949
  C 0.951030 0.240805 0.267368
  C 2.441708 0.101211 0.157679
  C 3.249709 0.035506 1.429357
  C 2.474061 -0.130884 2.724294
  C 3.428667 -0.219646 3.910728
  C 3.083530 0.158199 -1.051044
  H 2.474867 0.269155 -1.939051
  C 4.487920 0.082385 -1.275648
  C 5.050785 0.140319 -2.488501
  H 6.106689 0.087402 -2.622846
  H 0.496962 0.275053 1.235329
  H 1.559699 -0.748962 0.024089
  H 0.427096 0.710168 -0.548520
  H 3.829029 0.953929 1.491684
  H 3.961579 -0.786405 1.356061
  H 1.866782 -1.048016 2.685100
  H 1.802355 0.727553 2.875787
  H 4.095766 -1.067713 3.804330
  H 2.877026 -0.335379 4.833191
  H 4.029757 0.678745 3.983451
  H 5.128796 -0.021549 -0.410354
  H 4.462361 0.248108 -3.373259
 22
 56.982290
  C 0.949453 0.254467 0.250135
  C 2.435601 0.101577 0.143465
  C 3.255206 0.036893 1.435447
  C 2.473356 -0.132467 2.743696
  C 3.426647 -0.231049 3.930709
  C 3.080247 0.159493 -1.066069
  H 2.473432 0.268085 -1.948245
  C 4.485795 0.083749 -1.291595
  C 5.050742 0.140470 -2.504122
  H 6.105710 0.088889 -2.636702
  H 0.491859 0.316883 1.204850
  H 1.600094 -0.746145 0.054930
  H 0.427992 0.656479 -0.587577
  H 3.838638 0.956251 1.498622
  H 3.962238 -0.778508 1.360939
  H 1.864046 -1.042440 2.702752
  H 1.809324 0.725645 2.899665
  H 4.090375 -1.084296 3.820786
  H 2.871134 -0.347853 4.858189
  H 4.034550 0.666701 4.006861
  H 5.124446 -0.017635 -0.430931
  H 4.462410 0.247137 -3.391971
 22
 59.310742
  C 0.951067 0.263393 0.263360
  C 2.437202 0.101284 0.157556
  C 3.251800 0.040985 1.432947
  C 2.476666 -0.132847 2.726948
  C 3.426795 -0.237618 3.906998
  C 3.083889 0.168720 -1.059006
  H 2.477664 0.277339 -1.939914
  C 4.482076 0.097244 -1.278866
  C 5.050306 0.145162 -2.490490
  H 6.116153 0.061518 -2.622877
  H 0.485192 0.344843 1.220963
  H 1.641036 -0.744728 0.101383
  H 0.419639 0.607950 -0.598999
  H 3.830300 0.962590 1.497665
  H 3.965970 -0.777633 1.354727
  H 1.865199 -1.042891 2.681110
  H 1.811481 0.726425 2.887063
  H 4.088312 -1.089374 3.792462
  H 2.874129 -0.357730 4.829319
  H 4.033883 0.656638 3.986678
  H 5.121898 -0.015368 -0.410748
  H 4.457169 0.233164 -3.389964
 22
 61.419091
  C 0.939175 0.277370 0.254083
  C 2.433954 0.093626 0.151179
  C 3.254308 0.038026 1.428046
  C 2.475098 -0.132898 2.736749
  C 3.433460 -0.245146 3.924458
  C 3.080031 0.161486 -1.065472
  H 2.465554 0.269659 -1.954429
  C 4.488959 0.084104 -1.287235
  C 5.059501 0.139701 -2.496454
  H 6.122491 0.082549 -2.624539
  H 0.467734 0.371273 1.202045
  H 1.662835 -0.748462 0.116622
  H 0.403117 0.578690 -0.629190
  H 3.837651 0.964949 1.488694
  H 3.969322 -0.788221 1.348296
  H 1.858130 -1.037211 2.692199
  H 1.819105 0.726529 2.897718
  H 4.091187 -1.104286 3.808593
  H 2.878694 -0.362240 4.854261
  H 4.049580 0.648319 4.003684
  H 5.124622 -0.020867 -0.425373
  H 4.472149 0.238961 -3.389831
 22
 63.556658
  C 0.953012 0.288428 0.258122
  C 2.440749 0.084484 0.154981
  C 3.262780 0.034075 1.428279
  C 2.474802 -0.132859 2.739320
  C 3.425042 -0.249835 3.928090
  C 3.087265 0.153821 -1.068289
  H 2.472062 0.260283 -1.951233
  C 4.485213 0.074345 -1.292871
  C 5.054444 0.135757 -2.503085
  H 6.135541 0.094670 -2.632973
  H 0.477035 0.383238 1.206704
  H 1.697626 -0.747634 0.136645
  H 0.414803 0.550444 -0.637227
  H 3.846643 0.956625 1.485928
  H 3.970189 -0.786564 1.350580
  H 1.851265 -1.035164 2.692746
  H 1.819762 0.733895 2.897511
  H 4.075326 -1.108890 3.816216
  H 2.868199 -0.362662 4.852641
  H 4.044030 0.636389 4.009123
  H 5.117507 -0.024327 -0.441164
  H 4.457379 0.250131 -3.405252
 22
 65.344298
  C 0.941920 0.307621 0.255969
  C 2.436388 0.074237 0.156319
  C 3.262391 0.029024 1.431948
  C 2.481662 -0.130918 2.731265
  C 3.426710 -0.251104 3.914285
  C 3.085779 0.144001 -1.068410
  H 2.469209 0.249802 -1.953239
  C 4.487357 0.060509 -1.290208
  C 5.060165 0.130077 -2.499117
  H 6.120272 0.113824 -2.621066
  H 0.457888 0.397072 1.205782
  H 1.712379 -0.758008 0.145799
  H 0.408660 0.534995 -0.642156
  H 3.850117 0.952801 1.486602
  H 3.971245 -0.797357 1.355832
  H 1.860296 -1.019430 2.686643
  H 1.840298 0.727189 2.886490
  H 4.077095 -1.121001 3.801810
  H 2.864214 -0.360501 4.846857
  H 4.055166 0.638511 3.993987
  H 5.131093 -0.032676 -0.419916
  H 4.472328 0.260672 -3.391883
