 21
 0.000000
  C 0.814015 0.043421 0.320357
  C 2.301178 0.056041 0.102540
  C 3.223120 -0.012904 1.314313
  C 2.576306 -0.084045 2.692497
  H 3.354204 -0.127221 3.450277
  C 2.894894 0.124916 -1.085333
  C 2.385063 0.205547 -2.492888
  C 0.886059 0.219226 -2.757106
  H 0.717150 0.281568 -3.829647
  H 3.980697 0.125483 -1.080140
  H 0.564457 -0.026300 1.372986
  H 0.356719 -0.809228 -0.177721
  H 0.357294 0.953572 -0.059842
  H 3.875451 0.865421 1.292536
  H 3.868427 -0.889102 1.198516
  H 1.958138 -0.972909 2.794138
  H 1.964406 0.793462 2.887735
  H 2.820376 -0.639468 -3.038500
  H 2.818451 1.108934 -2.937138
  H 0.409849 1.076916 -2.291693
  H 0.411782 -0.687959 -2.394864
 21
 3.960222
  C 0.817475 0.010569 0.332070
  C 2.279526 0.053618 0.110433
  C 3.216506 -0.021630 1.320245
  C 2.578301 -0.076617 2.701478
  H 3.362469 -0.124803 3.453966
  C 2.875276 0.135670 -1.076653
  C 2.373604 0.219647 -2.492169
  C 0.874790 0.208310 -2.769203
  H 0.713383 0.275166 -3.843952
  H 3.961802 0.156207 -1.063141
  H 0.535008 -0.029832 1.372052
  H 0.327602 -0.801258 -0.193722
  H 0.571996 0.946311 -0.091187
  H 3.881394 0.845584 1.288324
  H 3.849768 -0.905483 1.204312
  H 1.953242 -0.959554 2.815260
  H 1.981161 0.811390 2.897955
  H 2.828908 -0.614387 -3.039187
  H 2.796722 1.133929 -2.925178
  H 0.376142 1.053440 -2.304805
  H 0.415686 -0.710748 -2.419412
 21
 11.430302
  C 0.812543 -0.003477 0.340433
  C 2.280006 0.048136 0.114887
  C 3.219890 -0.041471 1.315565
  C 2.570531 -0.070472 2.694018
  H 3.346327 -0.131205 3.452586
  C 2.872593 0.151497 -1.071630
  C 2.366478 0.239956 -2.483710
  C 0.867412 0.178180 -2.760453
  H 0.704557 0.253948 -3.833119
  H 3.957558 0.206606 -1.058919
  H 0.506420 -0.014068 1.375051
  H 0.291297 -0.765607 -0.223096
  H 0.777229 0.959325 -0.105677
  H 3.909148 0.808303 1.277986
  H 3.828977 -0.943769 1.204907
  H 1.924638 -0.937095 2.809070
  H 1.993452 0.832474 2.878463
  H 2.849778 -0.571805 -3.043362
  H 2.758201 1.176528 -2.904401
  H 0.333950 0.997814 -2.284643
  H 0.442944 -0.764311 -2.425297
 21
 21.860707
  C 0.807612 -0.027797 0.358411
  C 2.281184 0.046359 0.116657
  C 3.210291 -0.043227 1.300244
  C 2.558545 -0.059957 2.672297
  H 3.329510 -0.123433 3.431718
  C 2.876562 0.158148 -1.071288
  C 2.367683 0.250421 -2.477984
  C 0.871734 0.172506 -2.748376
  H 0.704306 0.253452 -3.818088
  H 3.957932 0.219839 -1.058121
  H 0.494868 -0.020421 1.393856
  H 0.271821 -0.755130 -0.216187
  H 0.930213 0.929059 -0.095751
  H 3.906031 0.799263 1.258437
  H 3.808387 -0.952133 1.191296
  H 1.905568 -0.919480 2.788364
  H 1.988976 0.847162 2.849632
  H 2.856548 -0.550472 -3.043893
  H 2.746062 1.192016 -2.893107
  H 0.328746 0.981184 -2.264270
  H 0.461838 -0.778745 -2.418701
 21
 31.896559
  C 0.788580 -0.041831 0.349731
  C 2.267820 0.045593 0.112326
  C 3.209882 -0.051267 1.312443
  C 2.573598 -0.049273 2.690820
  H 3.355924 -0.118769 3.443869
  C 2.873778 0.166085 -1.070472
  C 2.365002 0.261752 -2.489329
  C 0.868995 0.159116 -2.757798
  H 0.695238 0.247083 -3.830741
  H 3.955553 0.241720 -1.046364
  H 0.457294 -0.041801 1.374838
  H 0.232781 -0.726039 -0.264500
  H 1.053701 0.924034 -0.082796
  H 3.919554 0.775148 1.263064
  H 3.789755 -0.969020 1.205986
  H 1.909591 -0.900765 2.821051
  H 2.018003 0.869331 2.869113
  H 2.866711 -0.523910 -3.062223
  H 2.725522 1.212090 -2.897411
  H 0.314497 0.950482 -2.264833
  H 0.479532 -0.800267 -2.436189
 21
 40.907271
  C 0.786121 -0.052040 0.359729
  C 2.267151 0.048743 0.102872
  C 3.209207 -0.053413 1.299921
  C 2.560179 -0.041579 2.682904
  H 3.336944 -0.116124 3.444191
  C 2.879333 0.172921 -1.082325
  C 2.370699 0.268545 -2.488549
  C 0.871610 0.146863 -2.747973
  H 0.688312 0.240392 -3.817966
  H 3.961409 0.257112 -1.056816
  H 0.477486 -0.059546 1.379392
  H 0.212713 -0.686934 -0.282308
  H 1.155177 0.911427 -0.040442
  H 3.933675 0.770358 1.250487
  H 3.778246 -0.984150 1.193177
  H 1.886106 -0.886931 2.810968
  H 2.010143 0.882853 2.854329
  H 2.881704 -0.508715 -3.070797
  H 2.717697 1.228931 -2.894520
  H 0.306877 0.931643 -2.240894
  H 0.497027 -0.827870 -2.429914
 21
 47.975971
  C 0.780781 -0.072432 0.376827
  C 2.255680 0.045548 0.102858
  C 3.198776 -0.053396 1.301838
  C 2.568389 -0.027107 2.678624
  H 3.356239 -0.096024 3.433756
  C 2.873137 0.169563 -1.083583
  C 2.369387 0.270841 -2.495310
  C 0.880809 0.145152 -2.761938
  H 0.700990 0.250808 -3.834148
  H 3.958190 0.253368 -1.052524
  H 0.485335 -0.112933 1.399861
  H 0.182629 -0.650077 -0.303241
  H 1.228737 0.900939 0.023909
  H 3.922064 0.757253 1.244261
  H 3.754980 -0.980938 1.199929
  H 1.897049 -0.868013 2.822342
  H 2.022414 0.900052 2.846184
  H 2.883646 -0.496322 -3.080351
  H 2.710432 1.233663 -2.892088
  H 0.316792 0.913216 -2.252527
  H 0.513867 -0.826623 -2.460544
 21
 53.108494
  C 0.777590 -0.093728 0.380609
  C 2.250709 0.040971 0.097908
  C 3.197661 -0.053281 1.298766
  C 2.573969 -0.011391 2.688586
  H 3.363583 -0.070287 3.432572
  C 2.875449 0.165061 -1.089032
  C 2.378594 0.273880 -2.502154
  C 0.881803 0.144636 -2.777750
  H 0.704792 0.262367 -3.849707
  H 3.953201 0.248039 -1.050792
  H 0.483115 -0.171862 1.410702
  H 0.166792 -0.600988 -0.322812
  H 1.292252 0.892218 0.076356
  H 3.927209 0.754972 1.230364
  H 3.751930 -0.989403 1.199806
  H 1.901062 -0.856959 2.851724
  H 2.028074 0.918455 2.851717
  H 2.898464 -0.487020 -3.091056
  H 2.717520 1.240409 -2.890899
  H 0.306745 0.914013 -2.255171
  H 0.513178 -0.845189 -2.486022
 21
 56.950118
  C 0.784032 -0.111857 0.383292
  C 2.260771 0.042711 0.101203
  C 3.194875 -0.050165 1.295384
  C 2.568481 0.000538 2.678056
  H 3.360496 -0.049750 3.428154
  C 2.891240 0.164497 -1.088614
  C 2.384672 0.274725 -2.507509
  C 0.881945 0.144840 -2.765706
  H 0.690231 0.263865 -3.833815
  H 3.978319 0.242372 -1.049690
  H 0.487850 -0.232507 1.404383
  H 0.147045 -0.559724 -0.366081
  H 1.355920 0.885921 0.132763
  H 3.924834 0.754100 1.225376
  H 3.743570 -0.983886 1.201872
  H 1.900324 -0.843697 2.846273
  H 2.018155 0.930042 2.831309
  H 2.902215 -0.491752 -3.105479
  H 2.721214 1.248000 -2.903235
  H 0.316946 0.909305 -2.237318
  H 0.519502 -0.838950 -2.471762
 21
 60.345734
  C 0.786600 -0.124472 0.374279
  C 2.258633 0.049347 0.091296
  C 3.199387 -0.048766 1.298332
  C 2.569454 0.008268 2.685170
  H 3.352338 -0.036158 3.428930
  C 2.890442 0.168913 -1.102670
  C 2.385676 0.275740 -2.511231
  C 0.889220 0.142408 -2.763232
  H 0.694970 0.260083 -3.820861
  H 3.970800 0.246007 -1.064911
  H 0.489590 -0.278646 1.388279
  H 0.151072 -0.507078 -0.382822
  H 1.402562 0.884510 0.165102
  H 3.932207 0.751351 1.227311
  H 3.746203 -0.986616 1.208541
  H 1.903744 -0.834990 2.859144
  H 2.020566 0.932277 2.832546
  H 2.902345 -0.488694 -3.107422
  H 2.717190 1.247244 -2.907608
  H 0.326909 0.903051 -2.235209
  H 0.531473 -0.838490 -2.469227
 21
 62.983405
  C 0.789728 -0.139215 0.389892
  C 2.259601 0.050973 0.102317
  C 3.202569 -0.048433 1.297391
  C 2.578371 0.017842 2.686059
  H 3.372402 -0.019188 3.434754
  C 2.891702 0.169400 -1.096245
  C 2.390717 0.278412 -2.515400
  C 0.892399 0.143016 -2.782221
  H 0.706112 0.265319 -3.854542
  H 3.971627 0.247248 -1.054626
  H 0.493825 -0.321580 1.404007
  H 0.130932 -0.464818 -0.390785
  H 1.441796 0.873208 0.213845
  H 3.935482 0.745971 1.219719
  H 3.742527 -0.984839 1.207498
  H 1.908870 -0.834027 2.869696
  H 2.021806 0.950178 2.829695
  H 2.911845 -0.482456 -3.108670
  H 2.722370 1.249256 -2.909760
  H 0.321433 0.907456 -2.254115
  H 0.530362 -0.850698 -2.491089
 21
 65.486220
  C 0.790257 -0.155814 0.380517
  C 2.261769 0.052128 0.099322
  C 3.204417 -0.048992 1.297101
  C 2.578716 0.027447 2.683626
  H 3.363058 -0.000812 3.427040
  C 2.897935 0.169566 -1.101853
  C 2.396873 0.280803 -2.510282
  C 0.894403 0.142510 -2.769419
  H 0.703253 0.265862 -3.829704
  H 3.984924 0.249517 -1.059733
  H 0.490518 -0.354584 1.380358
  H 0.128316 -0.429469 -0.412437
  H 1.475174 0.865632 0.231935
  H 3.944307 0.746636 1.215608
  H 3.743642 -0.993729 1.211672
  H 1.918606 -0.814474 2.872178
  H 2.024493 0.950035 2.817718
  H 2.920627 -0.481960 -3.110057
  H 2.727288 1.257349 -2.907179
  H 0.327118 0.902163 -2.238634
  H 0.538709 -0.844970 -2.480730
 21
 67.718056
  C 0.783445 -0.173852 0.388529
  C 2.261225 0.054317 0.102295
  C 3.211170 -0.051015 1.297468
  C 2.588170 0.034886 2.689320
  H 3.388495 0.013001 3.443765
  C 2.894943 0.169417 -1.102991
  C 2.396727 0.283699 -2.517620
  C 0.908994 0.144746 -2.784902
  H 0.725409 0.270559 -3.845369
  H 3.968509 0.254458 -1.059497
  H 0.481424 -0.383077 1.394271
  H 0.114540 -0.402298 -0.404301
  H 1.498679 0.861194 0.254721
  H 3.960267 0.746052 1.209152
  H 3.743854 -0.998251 1.213512
  H 1.925731 -0.811746 2.886651
  H 2.026591 0.966823 2.818663
  H 2.922394 -0.475370 -3.115057
  H 2.724927 1.259348 -2.910724
  H 0.338860 0.901149 -2.257143
  H 0.555837 -0.838571 -2.502507
 21
 70.016412
  C 0.786966 -0.195692 0.389532
  C 2.261825 0.060151 0.106965
  C 3.215899 -0.046649 1.304853
  C 2.597747 0.044249 2.688504
  H 3.387317 0.029250 3.432292
  C 2.900922 0.172565 -1.099265
  C 2.405752 0.287741 -2.516134
  C 0.910370 0.152644 -2.790734
  H 0.729034 0.277553 -3.864154
  H 3.983295 0.254912 -1.051933
  H 0.483099 -0.405729 1.392426
  H 0.111815 -0.390001 -0.409524
  H 1.520016 0.856623 0.266825
  H 3.964221 0.746253 1.213896
  H 3.747467 -0.997345 1.223266
  H 1.942599 -0.796922 2.889537
  H 2.038836 0.965934 2.812063
  H 2.927916 -0.467550 -3.106597
  H 2.737232 1.254828 -2.908471
  H 0.337590 0.918837 -2.265040
  H 0.547798 -0.840665 -2.503149
