 20
 0.000000
  C 1.110991 0.034107 0.057002
  C 2.607345 0.044465 0.038423
  C 3.323007 0.540266 -0.976879
  C 4.760992 0.550254 -0.998209
  C 5.480966 1.048573 -2.018642
  C 6.919637 1.057489 -2.037898
  C 7.637499 1.552389 -3.051368
  C 9.127605 1.570651 -3.089761
  H 0.749053 -0.416797 0.980412
  H 0.715796 -0.547899 -0.776275
  H 0.714168 1.047720 0.001010
  H 3.106268 -0.377607 0.900932
  H 2.811633 0.959641 -1.834884
  H 5.265787 0.129500 -0.137347
  H 4.976671 1.469403 -2.879684
  H 7.426661 0.637144 -1.177880
  H 7.138544 1.974487 -3.914965
  H 9.561929 1.132251 -2.192723
  H 9.486966 2.597147 -3.178987
  H 9.486440 1.009945 -3.954435
 20
 3.611049
  C 1.114527 0.048950 0.083424
  C 2.585115 0.052696 0.043519
  C 3.309674 0.548429 -0.966731
  C 4.745801 0.550971 -0.999015
  C 5.472858 1.049627 -2.012562
  C 6.908144 1.055077 -2.041024
  C 7.632885 1.550353 -3.046962
  C 9.121491 1.563032 -3.092014
  H 0.712731 -0.427529 0.971245
  H 0.945953 -0.544126 -0.790391
  H 0.675567 1.038691 -0.026687
  H 3.102193 -0.367619 0.897837
  H 2.805144 0.975246 -1.825912
  H 5.249621 0.121819 -0.141653
  H 4.969376 1.479335 -2.869470
  H 7.409479 0.625209 -1.182469
  H 7.134211 1.980668 -3.906354
  H 9.545286 1.115112 -2.196255
  H 9.488548 2.586212 -3.179738
  H 9.478382 1.011350 -3.962446
 20
 11.610720
  C 1.107075 0.053422 0.093142
  C 2.580239 0.071324 0.053864
  C 3.301841 0.570646 -0.956392
  C 4.733658 0.558295 -0.998079
  C 5.459789 1.061804 -2.008004
  C 6.902517 1.052333 -2.045021
  C 7.622751 1.549323 -3.040796
  C 9.111788 1.546770 -3.092639
  H 0.680529 -0.448481 0.963261
  H 1.165040 -0.564321 -0.785740
  H 0.633618 1.012407 -0.091531
  H 3.115913 -0.337024 0.906642
  H 2.797961 1.007188 -1.812468
  H 5.239375 0.113020 -0.147631
  H 4.953629 1.509617 -2.858676
  H 7.405335 0.604453 -1.191898
  H 7.121845 1.997475 -3.894250
  H 9.534778 1.081393 -2.202292
  H 9.490137 2.568124 -3.169874
  H 9.459473 1.003060 -3.973441
 20
 22.117662
  C 1.071135 0.058695 0.115644
  C 2.566521 0.068295 0.053844
  C 3.284274 0.570890 -0.956000
  C 4.718088 0.555808 -0.999216
  C 5.450946 1.066174 -2.012701
  C 6.908603 1.050740 -2.050264
  C 7.637429 1.554249 -3.049338
  C 9.130863 1.544892 -3.099837
  H 0.638527 -0.451873 0.966483
  H 1.296864 -0.552994 -0.738277
  H 0.581587 0.989442 -0.107333
  H 3.113044 -0.340243 0.899345
  H 2.777753 1.014807 -1.811187
  H 5.224611 0.102628 -0.149793
  H 4.943557 1.523341 -2.864042
  H 7.411991 0.593219 -1.196021
  H 7.138263 2.011269 -3.902349
  H 9.552277 1.070643 -2.209748
  H 9.515030 2.566827 -3.170213
  H 9.477961 1.004171 -3.985347
 20
 31.846792
  C 1.071509 0.064095 0.124073
  C 2.566718 0.074036 0.039734
  C 3.287356 0.587094 -0.969298
  C 4.723626 0.557474 -1.016205
  C 5.458871 1.075352 -2.016583
  C 6.890703 1.045836 -2.052405
  C 7.627119 1.558909 -3.042667
  C 9.113275 1.533687 -3.090974
  H 0.647510 -0.411779 0.998138
  H 1.432483 -0.599146 -0.665642
  H 0.558695 0.951828 -0.194611
  H 3.116696 -0.331106 0.884073
  H 2.782343 1.044797 -1.813735
  H 5.226932 0.085579 -0.176089
  H 4.961660 1.549192 -2.852898
  H 7.383028 0.571711 -1.211818
  H 7.136210 2.035726 -3.887653
  H 9.525099 1.041921 -2.213167
  H 9.507505 2.547699 -3.142458
  H 9.454294 1.006568 -3.981008
 20
 40.204069
  C 1.066735 0.067312 0.144420
  C 2.560580 0.074939 0.023714
  C 3.284546 0.597440 -0.986114
  C 4.710242 0.560637 -1.031153
  C 5.454813 1.085381 -2.027760
  C 6.886852 1.045412 -2.059810
  C 7.631627 1.562442 -3.041837
  C 9.116891 1.525837 -3.083864
  H 0.659590 -0.385691 1.030385
  H 1.525105 -0.624481 -0.598040
  H 0.529782 0.916383 -0.233402
  H 3.113937 -0.342474 0.868463
  H 2.780099 1.064693 -1.823262
  H 5.208710 0.077682 -0.195682
  H 4.963014 1.571171 -2.860453
  H 7.372354 0.559758 -1.223438
  H 7.148409 2.052017 -3.884722
  H 9.520813 1.021819 -2.208820
  H 9.519578 2.536956 -3.123343
  H 9.457957 1.004939 -3.977527
 20
 46.151565
  C 1.064116 0.070936 0.160373
  C 2.554477 0.074877 0.012420
  C 3.282569 0.607784 -0.997355
  C 4.703296 0.562118 -1.044443
  C 5.453931 1.093594 -2.035853
  C 6.884504 1.044532 -2.065644
  C 7.635505 1.566508 -3.040414
  C 9.124417 1.519275 -3.079887
  H 0.665603 -0.354704 1.076229
  H 1.600954 -0.653295 -0.532335
  H 0.509184 0.866522 -0.277059
  H 3.091124 -0.343554 0.835773
  H 2.778010 1.086149 -1.825624
  H 5.198292 0.067870 -0.215420
  H 4.966341 1.591626 -2.863544
  H 7.366179 0.545410 -1.231579
  H 7.159257 2.066224 -3.875125
  H 9.521953 1.003563 -2.210434
  H 9.535858 2.528876 -3.107288
  H 9.464791 1.004493 -3.979239
 20
 49.999878
  C 1.059138 0.078307 0.165868
  C 2.553951 0.066169 0.010713
  C 3.281524 0.615301 -0.996635
  C 4.703729 0.561664 -1.050366
  C 5.454682 1.101109 -2.035264
  C 6.884526 1.042248 -2.069343
  C 7.637940 1.571281 -3.038246
  C 9.126903 1.513456 -3.080325
  H 0.660797 -0.291330 1.090923
  H 1.667797 -0.693623 -0.465794
  H 0.486589 0.819115 -0.360593
  H 3.098262 -0.366513 0.842377
  H 2.772261 1.109321 -1.814731
  H 5.200166 0.052987 -0.229957
  H 4.967677 1.613109 -2.854431
  H 7.363764 0.529689 -1.244431
  H 7.163609 2.085905 -3.866167
  H 9.522608 0.981649 -2.215384
  H 9.546678 2.521663 -3.094856
  H 9.463034 1.007242 -3.987971
 20
 53.840410
  C 1.062974 0.084578 0.176475
  C 2.542770 0.059359 0.002788
  C 3.271683 0.617271 -1.002351
  C 4.701850 0.560968 -1.061988
  C 5.453532 1.103376 -2.040263
  C 6.898376 1.041013 -2.074398
  C 7.653890 1.572221 -3.036226
  C 9.129358 1.509663 -3.076755
  H 0.664824 -0.265272 1.106335
  H 1.713288 -0.703734 -0.425232
  H 0.485127 0.787170 -0.386417
  H 3.090996 -0.380079 0.841921
  H 2.759656 1.113518 -1.807556
  H 5.193913 0.054568 -0.259463
  H 4.961697 1.625726 -2.861175
  H 7.378409 0.520561 -1.250943
  H 7.190489 2.085540 -3.848110
  H 9.514434 0.980017 -2.229636
  H 9.547970 2.502062 -3.083663
  H 9.461401 1.014595 -3.975228
 20
 56.414126
  C 1.058718 0.097275 0.187573
  C 2.547688 0.049850 0.000242
  C 3.280517 0.617551 -1.006437
  C 4.699295 0.553787 -1.068695
  C 5.456427 1.102960 -2.046234
  C 6.884351 1.040151 -2.076379
  C 7.645986 1.576422 -3.035044
  C 9.140487 1.506064 -3.073227
  H 0.653123 -0.236512 1.123534
  H 1.756941 -0.724785 -0.397608
  H 0.476844 0.760709 -0.413606
  H 3.098144 -0.383980 0.837714
  H 2.764717 1.121458 -1.806067
  H 5.194966 0.036960 -0.262856
  H 4.970152 1.628712 -2.857944
  H 7.357750 0.516449 -1.261008
  H 7.179780 2.103860 -3.855236
  H 9.528632 0.958070 -2.212283
  H 9.569794 2.509874 -3.072307
  H 9.476916 1.008791 -3.987411
 20
 59.054489
  C 1.072430 0.109848 0.187614
  C 2.553525 0.035466 0.003449
  C 3.289790 0.615642 -1.003634
  C 4.703311 0.550550 -1.065173
  C 5.460987 1.103927 -2.043070
  C 6.875680 1.035473 -2.072891
  C 7.637818 1.575200 -3.031405
  C 9.138760 1.502595 -3.071343
  H 0.652199 -0.216853 1.117464
  H 1.805102 -0.735009 -0.383613
  H 0.493919 0.748834 -0.449165
  H 3.102556 -0.391320 0.841525
  H 2.773307 1.124970 -1.804768
  H 5.197280 0.028835 -0.262836
  H 4.967301 1.645391 -2.869590
  H 7.354231 0.498430 -1.246616
  H 7.170972 2.107312 -3.848871
  H 9.526733 0.952998 -2.218067
  H 9.567792 2.496608 -3.067102
  H 9.471214 1.011446 -3.983552
 20
 61.310258
  C 1.072720 0.120545 0.187593
  C 2.551513 0.022436 0.006537
  C 3.291490 0.618692 -0.996345
  C 4.704028 0.559831 -1.055899
  C 5.461542 1.113649 -2.033802
  C 6.883162 1.025736 -2.077768
  C 7.644519 1.565250 -3.036457
  C 9.140832 1.499356 -3.072787
  H 0.634666 -0.212442 1.108969
  H 1.842240 -0.748253 -0.384064
  H 0.503324 0.733203 -0.473295
  H 3.103624 -0.395029 0.850328
  H 2.776327 1.128216 -1.791797
  H 5.198893 0.026942 -0.261361
  H 4.973857 1.651235 -2.846286
  H 7.358119 0.489316 -1.262264
  H 7.176718 2.099193 -3.853913
  H 9.528609 0.951271 -2.218769
  H 9.569395 2.500356 -3.067757
  H 9.477337 1.006722 -3.987831
 20
 62.963181
  C 1.073989 0.151334 0.204846
  C 2.559180 0.006702 0.008536
  C 3.301799 0.606690 -0.999473
  C 4.707093 0.532522 -1.068657
  C 5.465292 1.092309 -2.044505
  C 6.889995 1.025244 -2.077551
  C 7.652423 1.571763 -3.033431
  C 9.137742 1.503645 -3.070023
  H 0.624424 -0.186897 1.113674
  H 1.871133 -0.766690 -0.382233
  H 0.503328 0.744029 -0.483601
  H 3.109344 -0.397627 0.851354
  H 2.779138 1.127191 -1.797722
  H 5.207435 -0.001298 -0.267971
  H 4.977350 1.630806 -2.852464
  H 7.366623 0.488210 -1.262082
  H 7.186331 2.106228 -3.848662
  H 9.525473 0.948734 -2.213916
  H 9.565322 2.506329 -3.059868
  H 9.474477 1.015539 -3.986505
 20
 64.272641
  C 1.080326 0.184979 0.217617
  C 2.554855 -0.010610 0.009010
  C 3.302788 0.592276 -1.004812
  C 4.707029 0.513950 -1.077865
  C 5.466367 1.077423 -2.052534
  C 6.892000 1.029579 -2.073288
  C 7.654429 1.579499 -3.025546
  C 9.146846 1.500923 -3.067800
  H 0.618046 -0.162542 1.112181
  H 1.898549 -0.786317 -0.388150
  H 0.513794 0.755739 -0.489907
  H 3.106098 -0.407297 0.859094
  H 2.782963 1.105091 -1.791347
  H 5.209811 -0.009255 -0.273372
  H 4.980612 1.612361 -2.853404
  H 7.371912 0.489745 -1.253942
  H 7.183099 2.124752 -3.847498
  H 9.526548 0.948049 -2.231028
  H 9.584179 2.509630 -3.051938
  H 9.480094 1.015292 -3.988997
