 20
 0.000000
  H 1.424755 0.177613 0.492968
  C 2.499681 0.138057 0.394188
  C 3.279644 0.614619 1.580728
  H 2.610065 0.932991 2.373626
  C 3.018302 -0.320660 -0.748264
  C 4.432149 -0.425004 -1.008420
  C 5.085124 -0.862091 -2.097697
  C 4.630314 -1.395055 -3.425909
  C 3.144865 -1.511658 -3.717298
  H 3.015485 -1.913829 -4.719856
  O 6.460638 -0.865024 -2.105090
  H 3.917689 1.456297 1.315217
  H 3.917796 -0.176827 1.971067
  H 2.339971 -0.632609 -1.524928
  H 5.061028 -0.095650 -0.187758
  H 5.095078 -2.380124 -3.531985
  H 5.095439 -0.756763 -4.183451
  H 2.659193 -0.539662 -3.680121
  H 2.658854 -2.188342 -3.018731
  H 6.798033 -0.530002 -1.269953
 20
 1.301146
  H 1.458927 -0.131740 0.625468
  C 2.516236 0.002558 0.446853
  C 3.272890 0.727297 1.519360
  H 2.616420 0.974279 2.349115
  C 3.034714 -0.459035 -0.694974
  C 4.435373 -0.415452 -1.020867
  C 5.083171 -0.931351 -2.076943
  C 4.625472 -1.446336 -3.410836
  C 3.147294 -1.372195 -3.756578
  H 3.017869 -1.610399 -4.807969
  O 6.458690 -0.970780 -2.050621
  H 3.700845 1.654839 1.136307
  H 4.091442 0.115610 1.903185
  H 2.379421 -0.972721 -1.376634
  H 5.059015 0.084212 -0.284109
  H 4.975006 -2.479772 -3.508674
  H 5.192514 -0.861335 -4.144517
  H 2.756280 -0.372853 -3.583220
  H 2.571054 -2.088057 -3.181346
  H 6.749537 -0.716803 -1.165308
 20
 5.930226
  H 1.520083 -0.346350 0.716691
  C 2.544483 -0.112261 0.473672
  C 3.238732 0.835660 1.404029
  H 2.557586 1.170312 2.187014
  C 3.095819 -0.678434 -0.608484
  C 4.469592 -0.518125 -0.979607
  C 5.099371 -1.007683 -2.062992
  C 4.611937 -1.449386 -3.411432
  C 3.146566 -1.210891 -3.737242
  H 2.985402 -1.368182 -4.802303
  O 6.473090 -1.087886 -2.007474
  H 3.607034 1.716176 0.875261
  H 4.090231 0.351015 1.878165
  H 2.504070 -1.373631 -1.182624
  H 5.044164 0.162579 -0.358208
  H 4.861400 -2.508391 -3.556931
  H 5.234772 -0.889917 -4.117817
  H 2.861359 -0.193308 -3.496759
  H 2.500792 -1.895155 -3.196478
  H 6.698159 -0.864629 -1.094775
 20
 15.713246
  H 1.543117 -0.356762 0.759119
  C 2.568377 -0.129256 0.516442
  C 3.257520 0.819996 1.436030
  H 2.605046 1.086884 2.264577
  C 3.105379 -0.666050 -0.589010
  C 4.451143 -0.458801 -1.017054
  C 5.087594 -1.042306 -2.068846
  C 4.617361 -1.530662 -3.390590
  C 3.190845 -1.166921 -3.788980
  H 3.045466 -1.363573 -4.847790
  O 6.452011 -1.144221 -1.934638
  H 3.538114 1.730523 0.912287
  H 4.169592 0.377444 1.844534
  H 2.498670 -1.329061 -1.183637
  H 4.941072 0.411994 -0.597162
  H 4.751896 -2.616356 -3.453000
  H 5.324183 -1.098952 -4.109028
  H 2.995117 -0.113735 -3.601899
  H 2.460655 -1.759317 -3.233474
  H 6.551231 -0.919013 -0.995140
 20
 33.394640
  H 1.585660 -0.362800 0.820724
  C 2.593552 -0.129106 0.531087
  C 3.328451 0.849300 1.399648
  H 2.697790 1.178908 2.227819
  C 3.104361 -0.673387 -0.582103
  C 4.436325 -0.523936 -1.011190
  C 5.070327 -1.107072 -2.072396
  C 4.667741 -1.467303 -3.457749
  C 3.200391 -1.211419 -3.786118
  H 3.055783 -1.327451 -4.858046
  O 6.408956 -1.245604 -1.755882
  H 3.632484 1.734282 0.830568
  H 4.231059 0.403515 1.812763
  H 2.504737 -1.397749 -1.120622
  H 4.936212 0.363796 -0.627788
  H 4.926458 -2.512062 -3.628361
  H 5.306310 -0.866502 -4.114182
  H 2.909939 -0.200910 -3.505345
  H 2.542588 -1.921404 -3.283845
  H 6.143347 -0.948877 -0.821690
 20
 54.760281
  H 1.611435 -0.450742 0.829334
  C 2.616157 -0.185662 0.535349
  C 3.292591 0.872924 1.352855
  H 2.636500 1.227247 2.143163
  C 3.167069 -0.788327 -0.521156
  C 4.523006 -0.565250 -0.976613
  C 5.148560 -1.116544 -2.119537
  C 4.654284 -1.487125 -3.473658
  C 3.209974 -1.112153 -3.776009
  H 3.014454 -1.232623 -4.839176
  O 6.405155 -1.264286 -1.849853
  H 3.571574 1.728054 0.734628
  H 4.204410 0.485089 1.810214
  H 2.609869 -1.559293 -1.032395
  H 4.908143 0.424958 -0.738065
  H 4.811579 -2.559767 -3.626435
  H 5.327082 -0.981620 -4.176041
  H 3.015998 -0.077742 -3.502150
  H 2.516483 -1.747124 -3.232583
  H 5.943288 -0.883672 -0.632929
 20
 32.538768
  H 1.591797 -0.428090 0.692193
  C 2.616596 -0.155305 0.462344
  C 3.252378 0.876576 1.350676
  H 2.607194 1.198289 2.162023
  C 3.218511 -0.771905 -0.552864
  C 4.697800 -0.612115 -0.948904
  C 5.295880 -1.169391 -2.188399
  C 4.685298 -1.464834 -3.531856
  C 3.223603 -1.136600 -3.690194
  H 2.867015 -1.259729 -4.738167
  O 6.496282 -1.339382 -1.993523
  H 3.550174 1.754978 0.787801
  H 4.149168 0.470928 1.806143
  H 2.649813 -1.490545 -1.124810
  H 5.054555 0.431800 -0.767232
  H 4.861019 -2.505142 -3.784264
  H 5.284865 -0.863370 -4.289686
  H 3.001907 -0.108290 -3.344473
  H 2.656569 -1.807919 -3.065255
  H 5.673333 -0.919446 -0.456526
 20
 6.810025
  H 1.681816 -0.607781 0.695747
  C 2.682348 -0.277070 0.435413
  C 3.237317 0.868413 1.237756
  H 2.504171 1.222955 1.965942
  C 3.353585 -0.919044 -0.514522
  C 4.758060 -0.600886 -0.912362
  C 5.346577 -1.156555 -2.178795
  C 4.630664 -1.457558 -3.476390
  C 3.190391 -0.990792 -3.616681
  H 2.913202 -1.035589 -4.670694
  O 6.541615 -1.338933 -2.100480
  H 3.508519 1.711767 0.590206
  H 4.137142 0.557831 1.779460
  H 2.890623 -1.751209 -1.027867
  H 4.907396 0.491923 -0.893086
  H 4.708631 -2.541326 -3.631163
  H 5.229813 -0.962417 -4.242807
  H 3.089879 0.055596 -3.324944
  H 2.497471 -1.605308 -3.060448
  H 5.616747 -0.924802 -0.275607
 20
 -0.694297
  H 1.689866 -0.664150 0.652927
  C 2.701602 -0.352144 0.435736
  C 3.205135 0.844078 1.180215
  H 2.442919 1.238172 1.845897
  C 3.392417 -0.995694 -0.496737
  C 4.773815 -0.602624 -0.917578
  C 5.383720 -1.176628 -2.173774
  C 4.612216 -1.425183 -3.448707
  C 3.183725 -0.907707 -3.551466
  H 2.866357 -0.933945 -4.591768
  O 6.569986 -1.409289 -2.131777
  H 3.502710 1.634729 0.490576
  H 4.080829 0.581159 1.773280
  H 2.977082 -1.875280 -0.963051
  H 4.866641 0.489135 -0.976308
  H 4.652535 -2.499025 -3.648256
  H 5.214200 -0.951704 -4.232581
  H 3.111811 0.114252 -3.189894
  H 2.488228 -1.520055 -2.985621
  H 5.537248 -0.868021 -0.179970
 20
 1.108027
  H 1.599781 -0.326924 0.637012
  C 2.644779 -0.137893 0.436206
  C 3.357705 0.753796 1.402407
  H 2.715723 1.015558 2.238370
  C 3.215320 -0.706576 -0.618123
  C 4.665942 -0.518038 -0.925190
  C 5.352382 -1.071721 -2.156868
  C 4.674843 -1.407145 -3.473222
  C 3.182734 -1.216755 -3.697744
  H 2.965238 -1.407891 -4.747590
  O 6.559367 -1.165269 -2.120507
  H 3.677266 1.674328 0.912079
  H 4.251826 0.265125 1.789533
  H 2.624541 -1.344376 -1.249495
  H 4.883626 0.558327 -0.974950
  H 4.950321 -2.442500 -3.696536
  H 5.215144 -0.796127 -4.205352
  H 2.872190 -0.200878 -3.467582
  H 2.590201 -1.917433 -3.117297
  H 5.254112 -0.887531 -0.074006
 20
 2.541952
  H 1.549974 0.033907 0.518257
  C 2.624127 0.053819 0.398063
  C 3.415800 0.538353 1.570331
  H 2.768721 0.757151 2.414808
  C 3.153559 -0.340610 -0.752252
  C 4.630460 -0.325664 -0.989062
  C 5.325436 -0.850208 -2.231996
  C 4.682517 -1.451199 -3.471766
  C 3.182309 -1.466941 -3.716156
  H 3.000626 -1.885479 -4.704983
  O 6.536823 -0.792262 -2.229339
  H 3.966634 1.444068 1.312691
  H 4.147372 -0.209427 1.878312
  H 2.502801 -0.664688 -1.539410
  H 4.986298 0.707753 -0.895428
  H 5.057165 -2.480338 -3.504216
  H 5.168884 -0.935176 -4.306294
  H 2.765327 -0.463340 -3.700714
  H 2.664260 -2.095294 -2.997170
  H 5.123950 -0.854348 -0.162531
