 17
 0.000000
  H 1.482129 0.164177 0.458639
  C 2.563617 0.155975 0.437771
  C 3.257347 0.635849 1.632271
  C 2.332077 1.084862 2.751747
  H 2.908325 1.427785 3.606468
  C 3.166586 -0.306430 -0.713042
  C 4.548410 -0.389053 -0.918797
  C 5.106347 -0.860337 -2.091107
  H 4.513039 -1.198722 -2.932542
  O 6.379445 -0.942430 -2.295235
  H 3.928381 1.460032 1.357804
  H 3.928667 -0.149103 2.003771
  H 1.692176 0.268468 3.078659
  H 1.691817 1.900566 2.423904
  H 2.526424 -0.631448 -1.521622
  H 5.239007 -0.078705 -0.146735
  H 6.920275 -0.637023 -1.536660
 17
 4.695162
  H 1.496226 0.028803 0.515832
  C 2.576060 0.086874 0.477579
  C 3.246830 0.638403 1.655068
  C 2.299771 1.141052 2.732198
  H 2.857728 1.521348 3.583132
  C 3.195457 -0.363303 -0.668114
  C 4.580052 -0.358184 -0.886306
  C 5.126130 -0.729818 -2.098923
  H 4.487429 -0.864586 -2.968232
  O 6.396270 -0.764658 -2.373890
  H 3.928905 1.442012 1.352951
  H 3.908159 -0.129338 2.080151
  H 1.648928 0.343784 3.082803
  H 1.672030 1.943789 2.352468
  H 2.572322 -0.760009 -1.457525
  H 5.239913 0.037359 -0.126575
  H 6.961025 -1.114355 -1.656119
 17
 13.480313
  H 1.486483 0.007046 0.522888
  C 2.565358 0.085181 0.494672
  C 3.216111 0.656318 1.669693
  C 2.262585 1.147869 2.744627
  H 2.813710 1.552425 3.588685
  C 3.202158 -0.356499 -0.645348
  C 4.591907 -0.331921 -0.852887
  C 5.155210 -0.692361 -2.053694
  H 4.525150 -0.893258 -2.920627
  O 6.452991 -0.624580 -2.287202
  H 3.894080 1.466191 1.365673
  H 3.897992 -0.093971 2.097204
  H 1.630734 0.339728 3.106758
  H 1.611603 1.929238 2.358082
  H 2.592851 -0.756112 -1.445023
  H 5.258465 0.027276 -0.081579
  H 6.992933 -1.392578 -2.031757
 17
 8.299779
  H 1.485461 0.005994 0.518601
  C 2.565254 0.074489 0.507504
  C 3.200759 0.659768 1.684436
  C 2.231841 1.165381 2.736172
  H 2.769858 1.585357 3.580232
  C 3.219787 -0.380809 -0.617559
  C 4.611350 -0.368180 -0.797476
  C 5.199761 -0.700463 -1.998352
  H 4.592333 -0.887791 -2.884856
  O 6.498687 -0.629796 -2.133184
  H 3.881826 1.467243 1.383896
  H 3.872955 -0.088698 2.126296
  H 1.599095 0.360772 3.101600
  H 1.585503 1.939151 2.328117
  H 2.622036 -0.779561 -1.424319
  H 5.279223 -0.108953 0.011426
  H 6.953390 -1.404463 -2.514904
 17
 5.382180
  H 1.468095 -0.024903 0.543259
  C 2.547223 0.015885 0.528458
  C 3.201688 0.656396 1.669450
  C 2.239220 1.248034 2.687506
  H 2.786634 1.716753 3.502492
  C 3.195239 -0.493661 -0.571807
  C 4.590565 -0.534136 -0.728261
  C 5.217272 -0.629590 -1.953456
  H 4.668607 -0.524157 -2.882877
  O 6.509851 -0.757546 -1.965636
  H 3.893394 1.432095 1.319408
  H 3.855427 -0.081564 2.153069
  H 1.593502 0.477129 3.108242
  H 1.604357 2.004809 2.228216
  H 2.596279 -0.912763 -1.369650
  H 5.258598 -0.625048 0.118982
  H 6.944999 -1.060345 -2.784957
 17
 17.580084
  H 1.418694 0.042293 0.525745
  C 2.498736 -0.030043 0.518695
  C 3.218249 0.627504 1.610420
  C 2.317320 1.299221 2.628942
  H 2.911948 1.792981 3.399452
  C 3.094372 -0.652949 -0.543682
  C 4.491743 -0.676546 -0.764800
  C 5.184929 -0.479084 -1.928226
  H 4.767366 -0.054407 -2.837640
  O 6.493689 -0.602866 -1.815168
  H 3.951943 1.339830 1.224321
  H 3.825682 -0.140752 2.108580
  H 1.667720 0.568729 3.114056
  H 1.684302 2.049543 2.156352
  H 2.473639 -1.190867 -1.248331
  H 5.211066 -0.987733 -0.009148
  H 6.980273 -1.006172 -2.559094
 17
 36.403371
  H 1.395434 -0.207166 0.714791
  C 2.469997 -0.083712 0.548147
  C 3.217538 0.656504 1.563966
  C 2.346121 1.290928 2.631689
  H 2.954439 1.884356 3.319463
  C 3.016543 -0.609825 -0.588755
  C 4.391963 -0.598864 -0.880617
  C 5.238189 -0.289534 -1.900164
  H 5.108120 0.338772 -2.768031
  O 6.453584 -0.794960 -1.635140
  H 3.768602 1.455451 1.059115
  H 4.004248 0.020599 2.003009
  H 1.830281 0.525194 3.217881
  H 1.593894 1.939893 2.187863
  H 2.375397 -1.139798 -1.277839
  H 5.184166 -1.181416 -0.323214
  H 6.882520 -1.321820 -2.327144
 17
 62.379292
  H 1.375331 -0.223268 0.752467
  C 2.425885 -0.087447 0.542246
  C 3.212108 0.706107 1.503208
  C 2.380908 1.266050 2.649457
  H 2.999712 1.869687 3.307993
  C 2.929529 -0.626013 -0.614620
  C 4.233404 -0.513324 -1.037317
  C 5.166075 -0.224552 -1.911434
  H 5.229804 0.445961 -2.748471
  O 6.364543 -0.831655 -1.438443
  H 3.706668 1.524896 0.967743
  H 4.022856 0.092303 1.909913
  H 1.942812 0.464121 3.239194
  H 1.574587 1.892669 2.275198
  H 2.284362 -1.255658 -1.217204
  H 5.486072 -1.163377 -0.524635
  H 6.795567 -1.453603 -2.062759
 17
 55.301111
  H 1.359658 -0.254179 0.779771
  C 2.400801 -0.094525 0.547407
  C 3.192895 0.714553 1.487318
  C 2.370160 1.258901 2.646083
  H 2.986935 1.885215 3.287798
  C 2.898356 -0.631869 -0.623448
  C 4.172872 -0.500329 -1.070239
  C 5.137446 -0.208902 -1.883728
  H 5.231789 0.485237 -2.697545
  O 6.358251 -0.840904 -1.408621
  H 3.667847 1.543736 0.944594
  H 4.022406 0.110547 1.883294
  H 1.973185 0.446107 3.249261
  H 1.536303 1.858601 2.288463
  H 2.260768 -1.286652 -1.194943
  H 5.699008 -1.200416 -0.568616
  H 6.772080 -1.461245 -2.057695
 17
 42.863433
  H 1.350399 -0.274519 0.790938
  C 2.372060 -0.068810 0.519941
  C 3.173425 0.764688 1.444772
  C 2.385230 1.222646 2.666419
  H 2.987607 1.891626 3.282113
  C 2.852500 -0.590775 -0.664613
  C 4.109959 -0.452781 -1.130126
  C 5.152194 -0.213763 -1.850238
  H 5.303923 0.461220 -2.675330
  O 6.403223 -0.849658 -1.390300
  H 3.562003 1.633877 0.905942
  H 4.053118 0.203757 1.777588
  H 2.093970 0.370640 3.277744
  H 1.482528 1.756242 2.369744
  H 2.215149 -1.272520 -1.216877
  H 6.021799 -1.234812 -0.563099
  H 6.771188 -1.483003 -2.051045
 17
 38.663808
  H 1.361635 -0.350960 0.835976
  C 2.380281 -0.130052 0.560925
  C 3.160281 0.752814 1.461001
  C 2.344383 1.258441 2.644100
  H 2.943586 1.917427 3.267050
  C 2.870483 -0.651545 -0.618255
  C 4.110759 -0.464292 -1.108371
  C 5.168365 -0.176812 -1.782820
  H 5.324103 0.598760 -2.514414
  O 6.426692 -0.871815 -1.463472
  H 3.545239 1.603863 0.888096
  H 4.037858 0.215347 1.834544
  H 2.001102 0.429634 3.259209
  H 1.473627 1.814038 2.303616
  H 2.226798 -1.303294 -1.196921
  H 6.182899 -1.450270 -0.705471
  H 6.810367 -1.352848 -2.235025
 17
 39.826076
  H 1.308564 -0.259062 0.802677
  C 2.341318 -0.105251 0.532055
  C 3.174613 0.711746 1.448788
  C 2.394236 1.222593 2.653533
  H 3.032618 1.825868 3.294232
  C 2.792096 -0.627802 -0.657327
  C 4.041051 -0.496423 -1.154409
  C 5.110991 -0.298627 -1.839304
  H 5.223786 0.329723 -2.711115
  O 6.425121 -0.746685 -1.390859
  H 3.591795 1.560123 0.895398
  H 4.026113 0.119901 1.797875
  H 2.007376 0.394230 3.243236
  H 1.554385 1.837385 2.337037
  H 2.105835 -1.226472 -1.245823
  H 6.370487 -1.258398 -0.552397
  H 6.962731 -1.174367 -2.098720
 17
 45.311681
  H 1.275977 -0.098500 0.722528
  C 2.332056 -0.040716 0.507417
  C 3.188351 0.652613 1.507330
  C 2.387656 1.200941 2.682988
  H 3.041242 1.718215 3.382275
  C 2.787154 -0.555595 -0.667005
  C 4.087816 -0.542707 -1.091419
  C 5.086810 -0.467016 -1.903967
  H 5.085742 -0.100779 -2.922554
  O 6.457746 -0.645449 -1.462134
  H 3.722507 1.471328 1.014140
  H 3.946113 -0.041568 1.883193
  H 1.886979 0.397373 3.218748
  H 1.632136 1.905648 2.340553
  H 2.076725 -1.067317 -1.313203
  H 6.537070 -0.907624 -0.518299
  H 7.049490 -1.099128 -2.100492
 17
 50.342687
  H 1.267102 0.092477 0.635415
  C 2.335165 0.073432 0.478411
  C 3.181620 0.637449 1.569206
  C 2.355370 1.145507 2.744361
  H 3.002361 1.550792 3.518603
  C 2.813884 -0.434015 -0.673395
  C 4.153220 -0.514318 -1.027064
  C 5.078242 -0.613816 -1.926894
  H 4.973280 -0.577843 -3.006035
  O 6.475431 -0.620275 -1.566211
  H 3.782695 1.457531 1.166386
  H 3.875122 -0.129736 1.922832
  H 1.768427 0.340251 3.181151
  H 1.673769 1.931793 2.426794
  H 2.105918 -0.856311 -1.385929
  H 6.640249 -0.633965 -0.598396
  H 7.099715 -1.069233 -2.179135
 17
 53.600862
  H 1.277315 0.185896 0.591031
  C 2.348733 0.143895 0.462420
  C 3.174268 0.634996 1.607567
  C 2.319271 1.108749 2.776467
  H 2.948120 1.457394 3.592256
  C 2.846285 -0.332873 -0.683652
  C 4.202555 -0.445029 -1.005408
  C 5.080587 -0.738811 -1.914654
  H 4.915703 -1.042003 -2.943162
  O 6.485329 -0.612711 -1.638572
  H 3.806997 1.458228 1.266062
  H 3.833416 -0.167966 1.946244
  H 1.695402 0.300231 3.151910
  H 1.671154 1.928804 2.474384
  H 2.149938 -0.681535 -1.447385
  H 6.695186 -0.388157 -0.707066
  H 7.131309 -1.029387 -2.248342
