 26
 0.000000
  C 0.966479 0.141273 0.403302
  C 2.442376 0.138431 0.395713
  C 3.232843 0.606344 1.559763
  C 2.459667 1.096296 2.779349
  H 3.139723 1.409588 3.558840
  C 3.055671 -0.326681 -0.762122
  C 4.433287 -0.411069 -0.972792
  C 5.115307 -0.861699 -2.096502
  C 4.625841 -1.384849 -3.400881
  C 3.136778 -1.502825 -3.695617
  H 2.986888 -1.901306 -4.689230
  O 6.437946 -0.855298 -2.080718
  H 0.536719 0.512216 1.326380
  H 0.593475 -0.870037 0.236231
  H 0.593151 0.755570 -0.417107
  H 3.889327 1.416613 1.223398
  H 3.889598 -0.211164 1.877535
  H 1.824907 0.303733 3.172777
  H 1.824708 1.940606 2.515086
  H 2.396996 -0.644048 -1.552116
  H 5.051574 -0.079131 -0.145632
  H 5.084172 -2.372478 -3.524533
  H 5.084470 -0.756626 -4.172752
  H 2.658898 -0.526421 -3.647503
  H 2.658630 -2.175254 -2.986205
  H 6.812842 -0.520450 -1.244615
 26
 -0.301106
  C 0.962266 0.102435 0.426484
  C 2.435557 0.115540 0.402368
  C 3.229487 0.623820 1.545365
  C 2.457686 1.136375 2.752568
  H 3.156632 1.477615 3.510479
  C 3.046878 -0.372567 -0.747717
  C 4.423768 -0.443518 -0.956004
  C 5.112411 -0.895098 -2.076507
  C 4.624634 -1.364269 -3.403798
  C 3.136338 -1.453698 -3.705245
  H 3.012148 -1.801287 -4.727538
  O 6.430843 -0.910463 -2.044746
  H 0.544485 0.500291 1.342985
  H 0.599956 -0.917649 0.287477
  H 0.572082 0.673400 -0.417957
  H 3.875841 1.428886 1.180992
  H 3.902377 -0.174008 1.877199
  H 1.845561 0.353962 3.192401
  H 1.819160 1.974605 2.487439
  H 2.387024 -0.723370 -1.523295
  H 5.055719 -0.095604 -0.148340
  H 5.084140 -2.346747 -3.566831
  H 5.100253 -0.710049 -4.143715
  H 2.657198 -0.481708 -3.628502
  H 2.641773 -2.168654 -3.054029
  H 6.821311 -0.607285 -1.202422
 26
 -0.234748
  C 0.963919 0.044757 0.449839
  C 2.435303 0.089820 0.409488
  C 3.228998 0.654079 1.527225
  C 2.456569 1.192152 2.725081
  H 3.158676 1.573045 3.463001
  C 3.047233 -0.422084 -0.732071
  C 4.423274 -0.480671 -0.944558
  C 5.113135 -0.938581 -2.063170
  C 4.625192 -1.341850 -3.410461
  C 3.140603 -1.387627 -3.720742
  H 3.019579 -1.669036 -4.762919
  O 6.430674 -1.002048 -2.015640
  H 0.547300 0.465136 1.355922
  H 0.624093 -0.986760 0.348349
  H 0.552461 0.574666 -0.410095
  H 3.855189 1.458226 1.129744
  H 3.920490 -0.118478 1.879914
  H 1.866660 0.412709 3.201814
  H 1.798435 2.011146 2.440640
  H 2.388867 -0.814336 -1.486850
  H 5.056369 -0.121480 -0.141869
  H 5.069292 -2.320807 -3.616442
  H 5.116156 -0.662587 -4.112772
  H 2.675357 -0.414915 -3.587795
  H 2.629834 -2.135450 -3.120437
  H 6.824296 -0.743654 -1.159823
 26
 -0.058213
  C 0.966321 0.005578 0.466504
  C 2.438696 0.064947 0.417045
  C 3.231400 0.669890 1.513510
  C 2.457307 1.237866 2.696875
  H 3.157298 1.646799 3.420166
  C 3.050888 -0.468236 -0.713190
  C 4.426924 -0.522231 -0.929688
  C 5.114192 -0.979953 -2.050401
  C 4.630193 -1.317947 -3.419126
  C 3.143721 -1.343954 -3.729095
  H 3.018816 -1.564869 -4.787768
  O 6.429044 -1.068300 -1.994279
  H 0.549597 0.443908 1.366265
  H 0.635934 -1.032999 0.390733
  H 0.545063 0.510322 -0.402274
  H 3.848830 1.467966 1.087811
  H 3.931439 -0.084188 1.886172
  H 1.876640 0.468905 3.199242
  H 1.791725 2.041117 2.389700
  H 2.393670 -0.887314 -1.455641
  H 5.065625 -0.146578 -0.137143
  H 5.071869 -2.281670 -3.674994
  H 5.121567 -0.600626 -4.085364
  H 2.680936 -0.381610 -3.537262
  H 2.634421 -2.125456 -3.171578
  H 6.819974 -0.846566 -1.126852
 26
 0.171634
  C 0.966947 -0.012336 0.479669
  C 2.440636 0.053477 0.421018
  C 3.233390 0.684388 1.499078
  C 2.463682 1.264499 2.675175
  H 3.165744 1.695208 3.385612
  C 3.051870 -0.495861 -0.701599
  C 4.428117 -0.555244 -0.918485
  C 5.111750 -1.010107 -2.041613
  C 4.637366 -1.288985 -3.426110
  C 3.150312 -1.322103 -3.738528
  H 3.025613 -1.517926 -4.801849
  O 6.422798 -1.139241 -1.970680
  H 0.553402 0.440652 1.371626
  H 0.642764 -1.052146 0.425281
  H 0.536532 0.474130 -0.399365
  H 3.838707 1.483287 1.054398
  H 3.946605 -0.053508 1.880106
  H 1.895410 0.500288 3.195713
  H 1.790081 2.053126 2.359145
  H 2.394967 -0.936387 -1.432710
  H 5.071678 -0.165222 -0.135928
  H 5.095331 -2.231375 -3.729754
  H 5.119418 -0.528846 -4.053673
  H 2.677596 -0.368799 -3.519989
  H 2.649619 -2.119898 -3.198786
  H 6.806996 -0.959335 -1.090766
 26
 0.424385
  C 0.975232 -0.023211 0.486315
  C 2.448270 0.042898 0.425028
  C 3.245734 0.698029 1.489617
  C 2.479937 1.299596 2.659196
  H 3.183507 1.744308 3.358491
  C 3.056688 -0.520837 -0.692753
  C 4.430123 -0.578417 -0.916353
  C 5.111443 -1.035712 -2.044016
  C 4.632509 -1.272670 -3.432269
  C 3.140665 -1.324906 -3.728818
  H 3.006464 -1.474719 -4.797977
  O 6.420891 -1.178752 -1.973328
  H 0.563608 0.435935 1.374786
  H 0.651434 -1.064571 0.439950
  H 0.544422 0.453989 -0.394610
  H 3.850382 1.485142 1.027964
  H 3.959467 -0.034310 1.883055
  H 1.914127 0.543989 3.195897
  H 1.800410 2.081401 2.330596
  H 2.400783 -0.977462 -1.415868
  H 5.077169 -0.184715 -0.142706
  H 5.108442 -2.196803 -3.778343
  H 5.092127 -0.480345 -4.032827
  H 2.648617 -0.393699 -3.461584
  H 2.664585 -2.155666 -3.218477
  H 6.805547 -1.011772 -1.091913
 26
 0.683448
  C 0.973552 -0.007313 0.474395
  C 2.446359 0.038521 0.424433
  C 3.244189 0.678061 1.495657
  C 2.478755 1.316460 2.643537
  H 3.181518 1.742490 3.348924
  C 3.056727 -0.543461 -0.682518
  C 4.430045 -0.615087 -0.897114
  C 5.109318 -1.049035 -2.031765
  C 4.644335 -1.248339 -3.435140
  C 3.158430 -1.316734 -3.741187
  H 3.032233 -1.439171 -4.814876
  O 6.419636 -1.202193 -1.960683
  H 0.562093 0.463740 1.355365
  H 0.634315 -1.045056 0.430704
  H 0.556204 0.474358 -0.412015
  H 3.884259 1.441142 1.038481
  H 3.926386 -0.072010 1.909349
  H 1.879463 0.586462 3.176953
  H 1.832242 2.115706 2.295401
  H 2.403480 -0.995850 -1.410787
  H 5.084817 -0.232502 -0.118211
  H 5.138659 -2.154877 -3.799804
  H 5.096133 -0.432860 -4.010906
  H 2.649157 -0.400035 -3.451521
  H 2.692899 -2.171279 -3.253552
  H 6.803198 -1.061921 -1.076320
 26
 0.835955
  C 0.987611 -0.081165 0.496174
  C 2.454485 0.042246 0.409553
  C 3.243343 0.761582 1.442647
  C 2.473779 1.339308 2.624014
  H 3.168486 1.838382 3.294106
  C 3.068726 -0.540770 -0.693556
  C 4.442057 -0.590162 -0.917598
  C 5.116952 -1.127688 -2.014505
  C 4.651428 -1.285058 -3.420414
  C 3.170014 -1.204324 -3.747528
  H 3.051797 -1.274065 -4.827556
  O 6.403302 -1.394025 -1.912055
  H 0.571291 0.379371 1.380803
  H 0.704829 -1.135219 0.476683
  H 0.524852 0.362117 -0.388668
  H 3.781186 1.580067 0.948440
  H 4.010999 0.082092 1.827520
  H 1.971631 0.559770 3.190922
  H 1.741159 2.072877 2.303373
  H 2.422218 -1.054690 -1.383146
  H 5.084261 -0.191699 -0.140684
  H 5.069044 -2.218072 -3.801518
  H 5.172267 -0.489495 -3.963313
  H 2.741811 -0.256116 -3.425907
  H 2.619291 -2.030988 -3.304657
  H 6.776569 -1.266025 -1.020114
 26
 2.136035
  C 0.985750 -0.143597 0.526081
  C 2.453088 -0.016340 0.424914
  C 3.241371 0.771414 1.403789
  C 2.475943 1.414188 2.553157
  H 3.172261 1.959669 3.187731
  C 3.069232 -0.653250 -0.646193
  C 4.439895 -0.701118 -0.878527
  C 5.110026 -1.187370 -2.002503
  C 4.665045 -1.248139 -3.421031
  C 3.188979 -1.081562 -3.741828
  H 3.062768 -1.098866 -4.820918
  O 6.395110 -1.468346 -1.901469
  H 0.570784 0.368457 1.385119
  H 0.708895 -1.196675 0.572201
  H 0.516431 0.244454 -0.379242
  H 3.775479 1.557990 0.861562
  H 4.015726 0.120589 1.823627
  H 1.984449 0.665053 3.169941
  H 1.732916 2.122027 2.193319
  H 2.426486 -1.207576 -1.312833
  H 5.096088 -0.193516 -0.182138
  H 5.037715 -2.188159 -3.845854
  H 5.235978 -0.454720 -3.919614
  H 2.809827 -0.130470 -3.375903
  H 2.599269 -1.894450 -3.330752
  H 6.754867 -1.430386 -0.996037
 26
 3.653669
  C 0.988336 -0.178961 0.547815
  C 2.453219 -0.046579 0.433345
  C 3.242289 0.781056 1.379516
  C 2.477559 1.470924 2.502202
  H 3.173610 2.042471 3.113076
  C 3.068624 -0.718870 -0.615705
  C 4.434829 -0.754773 -0.862546
  C 5.101583 -1.215729 -2.001123
  C 4.680259 -1.213505 -3.426492
  C 3.207970 -1.010259 -3.742173
  H 3.077693 -1.001752 -4.820121
  O 6.378451 -1.529544 -1.894072
  H 0.573842 0.362206 1.389727
  H 0.718200 -1.231275 0.631481
  H 0.511686 0.172810 -0.368215
  H 3.776135 1.545713 0.804542
  H 4.020110 0.149054 1.823531
  H 1.985218 0.748600 3.149561
  H 1.734908 2.163434 2.113037
  H 2.429692 -1.306981 -1.256424
  H 5.106477 -0.196853 -0.218703
  H 5.041608 -2.140047 -3.885851
  H 5.266811 -0.408537 -3.885960
  H 2.848570 -0.059972 -3.353048
  H 2.602467 -1.818091 -3.345501
  H 6.729943 -1.532315 -0.984562
 26
 5.467659
  C 0.987373 -0.227636 0.576576
  C 2.452836 -0.082443 0.442011
  C 3.241721 0.783341 1.350136
  C 2.477768 1.525856 2.436459
  H 3.174618 2.120975 3.022746
  C 3.068131 -0.785728 -0.585622
  C 4.431753 -0.813726 -0.842257
  C 5.094459 -1.238228 -1.996715
  C 4.687406 -1.200275 -3.427121
  C 3.231450 -0.886094 -3.739844
  H 3.087521 -0.907383 -4.817581
  O 6.378496 -1.528216 -1.897159
  H 0.572085 0.361450 1.382364
  H 0.733746 -1.276420 0.734233
  H 0.497069 0.054795 -0.357581
  H 3.781980 1.517026 0.743193
  H 4.014210 0.166915 1.824734
  H 1.979017 0.837075 3.114018
  H 1.739672 2.203890 2.012682
  H 2.430336 -1.400926 -1.205135
  H 5.118227 -0.225541 -0.235559
  H 4.971333 -2.150510 -3.889854
  H 5.333901 -0.441656 -3.880614
  H 2.956980 0.101268 -3.380658
  H 2.563663 -1.623827 -3.304814
  H 6.728978 -1.558164 -0.987857
 26
 8.293636
  C 0.973209 -0.170370 0.588977
  C 2.440012 -0.053429 0.451675
  C 3.246509 0.805819 1.349116
  C 2.506682 1.537322 2.459722
  H 3.214274 2.130995 3.032557
  C 3.039278 -0.766860 -0.578397
  C 4.396100 -0.806262 -0.850915
  C 5.066364 -1.226024 -2.007209
  C 4.725696 -1.176997 -3.452117
  C 3.260251 -0.935296 -3.792544
  H 3.139076 -0.907985 -4.873959
  O 6.342177 -1.542318 -1.868230
  H 0.574705 0.401695 1.413485
  H 0.695149 -1.219672 0.714843
  H 0.484344 0.150840 -0.334512
  H 3.776431 1.543506 0.738493
  H 4.030254 0.186938 1.799686
  H 2.029295 0.840177 3.145184
  H 1.753521 2.214243 2.060968
  H 2.393278 -1.362398 -1.209078
  H 5.129023 -0.197144 -0.315261
  H 5.080116 -2.096335 -3.925825
  H 5.336312 -0.369970 -3.864227
  H 2.916575 0.012768 -3.388737
  H 2.630361 -1.733175 -3.410579
  H 6.677231 -1.548422 -0.951725
 26
 17.902311
  C 0.970959 -0.256254 0.700478
  C 2.420311 -0.102222 0.486630
  C 3.234429 0.836973 1.285906
  C 2.521085 1.628904 2.372694
  H 3.234395 2.276754 2.874424
  C 2.985628 -0.854025 -0.513481
  C 4.314754 -0.862536 -0.849707
  C 5.033482 -1.218557 -2.008645
  C 4.773929 -1.137162 -3.465685
  C 3.347736 -0.757300 -3.847915
  H 3.255793 -0.721410 -4.934812
  O 6.294302 -1.552248 -1.827470
  H 0.582787 0.366782 1.497824
  H 0.733939 -1.301632 0.911061
  H 0.432626 -0.032496 -0.218858
  H 3.722138 1.539764 0.606507
  H 4.054476 0.277133 1.741766
  H 2.089293 0.972987 3.122174
  H 1.733953 2.258641 1.959251
  H 2.332270 -1.501039 -1.089612
  H 5.108933 -0.218121 -0.422363
  H 5.058646 -2.081324 -3.933719
  H 5.457097 -0.385306 -3.861782
  H 3.086053 0.223952 -3.452728
  H 2.635074 -1.485623 -3.483082
  H 6.604563 -1.621665 -0.918483
