 16
 0.000000
  C 0.981280 0.053064 0.195293
  C 2.484108 0.055382 0.154225
  C 3.216496 -0.018637 1.466030
  H 2.522629 -0.065619 2.298588
  C 3.116144 0.121848 -1.023693
  H 2.523081 0.172887 -1.928231
  C 4.547161 0.133007 -1.221441
  C 5.117937 0.200623 -2.419792
  H 6.187320 0.207683 -2.544902
  H 0.609812 -0.004333 1.212428
  H 0.585975 -0.793986 -0.361536
  H 0.585975 0.957381 -0.262707
  H 3.854044 0.856793 1.602369
  H 3.854050 -0.903845 1.503024
  H 5.168963 0.083142 -0.337682
  H 4.531287 0.251582 -3.322939
 16
 13.863985
  C 0.924145 0.045104 0.192904
  C 2.410548 0.061107 0.106560
  C 3.282742 -0.018326 1.572039
  H 2.562415 -0.035070 2.381218
  C 3.107792 0.129705 -1.116038
  H 2.513466 0.179083 -2.018615
  C 4.540994 0.135649 -1.259654
  C 5.154638 0.202024 -2.438473
  H 6.231298 0.203159 -2.522893
  H 0.584012 -0.038315 1.221919
  H 0.517276 -0.782528 -0.380054
  H 0.508649 0.962854 -0.230072
  H 3.914985 0.853211 1.634442
  H 3.863106 -0.931020 1.562889
  H 5.129606 0.085990 -0.350139
  H 4.600812 0.255092 -3.360288
 16
 40.871020
  C 0.887601 0.049465 0.164525
  C 2.349371 0.064415 0.036532
  C 3.353593 -0.027593 1.695595
  H 2.602177 -0.036816 2.469617
  C 3.091603 0.133367 -1.189909
  H 2.508562 0.184316 -2.096432
  C 4.510356 0.136001 -1.289223
  C 5.167612 0.201992 -2.449548
  H 6.241549 0.202349 -2.497203
  H 0.579667 -0.039815 1.199730
  H 0.470217 -0.781672 -0.392502
  H 0.461579 0.962518 -0.240276
  H 3.967740 0.860321 1.708467
  H 3.919100 -0.944959 1.641086
  H 5.055635 0.084890 -0.375772
  H 4.647371 0.258152 -3.387764
 16
 69.182289
  C 0.840696 0.049652 0.108563
  C 2.297042 0.068971 -0.065966
  C 3.459845 -0.034460 1.838578
  H 2.678360 -0.044900 2.574093
  C 3.052462 0.137344 -1.246494
  H 2.488850 0.187567 -2.174663
  C 4.481259 0.144480 -1.309207
  C 5.165013 0.206532 -2.451067
  H 6.237301 0.197567 -2.471512
  H 0.562005 -0.038560 1.165034
  H 0.403329 -0.788392 -0.441225
  H 0.399024 0.978083 -0.285962
  H 4.049742 0.858366 1.810721
  H 4.004147 -0.955582 1.737491
  H 5.001818 0.088919 -0.368806
  H 4.668073 0.250116 -3.406675
 16
 91.860905
  C 0.802477 0.055235 0.038200
  C 2.242955 0.072820 -0.182242
  C 3.569364 -0.043541 1.984822
  H 2.757458 -0.041215 2.693373
  C 3.002571 0.134637 -1.301349
  H 2.477746 0.186275 -2.277283
  C 4.435768 0.135484 -1.325487
  C 5.151376 0.200789 -2.446662
  H 6.218936 0.204487 -2.435283
  H 0.556470 -0.043890 1.115483
  H 0.360251 -0.774005 -0.478027
  H 0.345993 0.984126 -0.339595
  H 4.143745 0.860756 1.931388
  H 4.104093 -0.977418 1.853261
  H 4.920356 0.086453 -0.367563
  H 4.684382 0.260741 -3.416372
 16
 106.638197
  C 0.734521 0.057714 0.017192
  C 2.165918 0.079118 -0.279986
  C 3.682673 -0.049571 2.081370
  H 2.835126 -0.050018 2.740543
  C 2.964745 0.140694 -1.364420
  H 2.502334 0.193301 -2.354835
  C 4.405373 0.141408 -1.333568
  C 5.168126 0.203181 -2.421056
  H 6.238454 0.195502 -2.363308
  H 0.550855 -0.040231 1.084381
  H 0.259920 -0.779798 -0.478296
  H 0.262906 0.977770 -0.322718
  H 4.232542 0.868557 1.966926
  H 4.180500 -0.977909 1.889175
  H 4.847463 0.086868 -0.345077
  H 4.744245 0.254220 -3.412560
 16
 116.313350
  C 0.678617 0.060488 -0.030041
  C 2.090599 0.082336 -0.375843
  C 3.818637 -0.052715 2.180811
  H 2.940699 -0.051849 2.799513
  C 2.915761 0.139601 -1.416463
  H 2.508214 0.192087 -2.435606
  C 4.357089 0.137386 -1.328988
  C 5.164879 0.198434 -2.383052
  H 6.233733 0.197534 -2.278850
  H 0.537114 -0.037093 1.045041
  H 0.182706 -0.780275 -0.508124
  H 0.193553 0.984858 -0.348693
  H 4.346596 0.866709 2.029294
  H 4.291675 -0.984191 1.947029
  H 4.751406 0.086580 -0.326027
  H 4.784148 0.256245 -3.390030
 16
 122.149169
  C 0.599357 0.062615 -0.084193
  C 2.005851 0.085291 -0.462045
  C 3.980841 -0.055067 2.249566
  H 3.089995 -0.053799 2.843662
  C 2.865150 0.140940 -1.463758
  H 2.513957 0.193901 -2.510335
  C 4.304685 0.140029 -1.308055
  C 5.160548 0.196220 -2.322947
  H 6.222765 0.194260 -2.166917
  H 0.486679 -0.037479 0.991581
  H 0.087226 -0.780462 -0.552333
  H 0.103667 0.992158 -0.387661
  H 4.502318 0.864424 2.087067
  H 4.436214 -0.984531 1.991242
  H 4.650810 0.086500 -0.281449
  H 4.829656 0.247718 -3.347792
 16
 125.222463
  C 0.506697 0.066766 -0.147117
  C 1.901078 0.091086 -0.547629
  C 4.176067 -0.054447 2.272777
  H 3.284586 -0.048425 2.845541
  C 2.804870 0.143078 -1.497788
  H 2.524366 0.193014 -2.553494
  C 4.238406 0.142231 -1.260606
  C 5.152769 0.192994 -2.221989
  H 6.208435 0.184808 -2.000789
  H 0.417273 -0.034830 0.930918
  H -0.018937 -0.784641 -0.608630
  H 0.004308 0.995831 -0.437323
  H 4.694513 0.860279 2.104777
  H 4.615849 -0.987543 1.992431
  H 4.522092 0.091009 -0.215050
  H 4.885327 0.236541 -3.264987
 16
 126.045134
  C 0.379622 0.067702 -0.233359
  C 1.764540 0.095223 -0.636281
  C 4.447262 -0.050201 2.190454
  H 3.556856 -0.042265 2.772920
  C 2.729433 0.145370 -1.505216
  H 2.544907 0.193963 -2.579883
  C 4.143057 0.142691 -1.146721
  C 5.135298 0.186766 -2.026900
  H 6.165739 0.163991 -1.715192
  H 0.295613 -0.033745 0.849321
  H -0.142455 -0.776154 -0.688294
  H -0.125161 0.995015 -0.519929
  H 4.976178 0.865138 2.026725
  H 4.877014 -0.983388 1.900753
  H 4.337419 0.090102 -0.075747
  H 4.961119 0.218431 -3.089606
 16
 125.703266
  C 0.236459 0.072218 -0.328227
  C 1.617259 0.103175 -0.736288
  C 4.759100 -0.030994 2.016866
  H 3.892806 -0.023014 2.639052
  C 2.654335 0.151800 -1.485089
  H 2.593859 0.209314 -2.571884
  C 4.034536 0.123822 -0.984553
  C 5.104709 0.163099 -1.766733
  H 6.100474 0.135294 -1.355970
  H 0.157799 -0.035632 0.756580
  H -0.284761 -0.775096 -0.778368
  H -0.274428 0.999677 -0.609999
  H 5.301707 0.877977 1.864182
  H 5.191585 -0.963961 1.728203
  H 4.135131 0.044348 0.110901
  H 5.036389 0.214191 -2.841776
 16
 124.254161
  C 0.094059 0.078387 -0.422436
  C 1.480549 0.111870 -0.790746
  C 5.050374 -0.019907 1.848787
  H 4.247333 -0.024528 2.552420
  C 2.605695 0.156608 -1.396095
  H 2.665543 0.220411 -2.479255
  C 3.961956 0.117457 -0.816192
  C 5.060401 0.152352 -1.560989
  H 6.036710 0.118496 -1.110374
  H -0.021170 -0.036500 0.660570
  H -0.406456 -0.772883 -0.888102
  H -0.410678 0.999816 -0.722525
  H 5.598404 0.886128 1.683841
  H 5.517683 -0.940163 1.568027
  H 4.062315 0.017010 0.291229
  H 5.041242 0.189146 -2.637613
 16
 124.167636
  C 0.005121 0.082781 -0.479066
  C 1.402675 0.104039 -0.817930
  C 5.275904 -0.036202 1.842707
  H 4.561745 -0.036638 2.644795
  C 2.578628 0.131102 -1.321026
  H 2.692424 0.177365 -2.406178
  C 3.945905 0.109641 -0.758491
  C 5.005275 0.153307 -1.560212
  H 6.002038 0.152776 -1.157983
  H -0.143265 -0.018502 0.602899
  H -0.495069 -0.772473 -0.957977
  H -0.482392 1.007995 -0.806430
  H 5.833111 0.864463 1.690995
  H 5.780894 -0.956772 1.621851
  H 4.158722 0.052001 0.348959
  H 4.937113 0.216472 -2.636287
 16
 126.244152
  C -0.047207 0.089422 -0.523990
  C 1.348936 0.138407 -0.869979
  C 5.530950 -0.047172 1.804654
  H 4.891966 -0.061538 2.664566
  C 2.553157 0.142656 -1.298844
  H 2.712431 0.179964 -2.382041
  C 3.902666 0.104610 -0.690285
  C 4.980333 0.146013 -1.471785
  H 5.970698 0.150167 -1.051014
  H -0.195405 -0.045832 0.558971
  H -0.542989 -0.742637 -1.039641
  H -0.534667 1.029194 -0.808927
  H 6.057011 0.866157 1.609280
  H 6.024672 -0.963378 1.549683
  H 4.103194 0.055379 0.406368
  H 4.933402 0.198831 -2.548724
