 20
 0.000000
  H 1.509339 0.170412 0.475144
  C 2.590263 0.157522 0.443118
  C 3.314917 0.631579 1.622317
  C 2.429524 1.094634 2.773947
  C 3.264550 1.570235 3.958572
  C 3.175056 -0.308762 -0.716622
  C 4.553200 -0.399904 -0.944003
  C 5.084645 -0.874587 -2.126350
  H 4.475857 -1.209899 -2.959677
  O 6.349013 -0.975431 -2.379155
  H 3.982891 1.452786 1.331232
  H 3.982540 -0.162908 1.980641
  H 1.785146 0.274489 3.096058
  H 1.785741 1.910049 2.438888
  H 3.897538 0.770624 4.336197
  H 2.618516 1.896292 4.769613
  H 3.898221 2.408430 3.678232
  H 2.517160 -0.628879 -1.513130
  H 5.233409 -0.086480 -0.163601
  H 6.940345 -0.682409 -1.653464
 20
 10.076320
  H 1.480568 0.191148 0.526487
  C 2.557976 0.180301 0.499144
  C 3.287282 0.648019 1.662661
  C 2.407364 1.112691 2.819049
  C 3.249982 1.586100 3.998480
  C 3.211371 -0.339605 -0.794047
  C 4.578416 -0.422868 -1.002244
  C 5.117306 -0.897923 -2.183915
  H 4.504204 -1.232527 -3.014065
  O 6.381297 -0.999158 -2.437051
  H 3.957707 1.466567 1.366640
  H 3.957570 -0.147914 2.015307
  H 1.762961 0.294031 3.144601
  H 1.763361 1.929380 2.487800
  H 3.883321 0.784910 4.372306
  H 2.609335 1.913434 4.813220
  H 3.883788 2.423006 3.714496
  H 2.552674 -0.657884 -1.585267
  H 5.251456 -0.106591 -0.215995
  H 6.973726 -0.706506 -1.712884
 20
 30.318918
  H 1.407978 0.191178 0.525246
  C 2.479191 0.195202 0.536986
  C 3.247852 0.648396 1.664922
  C 2.402448 1.123143 2.843511
  C 3.284497 1.585773 3.997613
  C 3.212816 -0.376999 -0.884248
  C 4.572295 -0.429348 -1.015179
  C 5.153931 -0.894002 -2.173531
  H 4.549223 -1.230471 -3.007828
  O 6.422040 -0.981879 -2.398393
  H 3.926211 1.452294 1.350256
  H 3.924577 -0.150636 1.994704
  H 1.758111 0.314193 3.189772
  H 1.760200 1.948135 2.533094
  H 3.917754 0.776420 4.353248
  H 2.671436 1.921105 4.830133
  H 3.919951 2.414711 3.694917
  H 2.535797 -0.685936 -1.653515
  H 5.207929 -0.103733 -0.204490
  H 6.995613 -0.683166 -1.663357
 20
 53.308729
  H 1.356742 0.208479 0.567719
  C 2.428972 0.217618 0.593360
  C 3.211114 0.663773 1.704179
  C 2.379887 1.143982 2.894425
  C 3.279168 1.602213 4.038348
  C 3.233678 -0.408168 -0.960055
  C 4.591686 -0.451407 -1.068260
  C 5.201730 -0.920670 -2.240010
  H 4.603367 -1.259531 -3.080075
  O 6.477135 -1.002681 -2.453017
  H 3.892624 1.464556 1.379929
  H 3.890221 -0.140297 2.025444
  H 1.734928 0.337371 3.247432
  H 1.738041 1.972561 2.589847
  H 3.912230 0.789267 4.386601
  H 2.677886 1.941022 4.878079
  H 3.915478 2.427783 3.727765
  H 2.544700 -0.713717 -1.721732
  H 5.214817 -0.121897 -0.246884
  H 7.042425 -0.700469 -1.711195
 20
 76.070639
  H 1.308698 0.217877 0.590732
  C 2.378781 0.234282 0.635259
  C 3.181465 0.675190 1.733360
  C 2.367135 1.161012 2.936023
  C 3.285582 1.613197 4.065582
  C 3.258015 -0.444396 -1.048817
  C 4.607275 -0.474717 -1.125157
  C 5.231452 -0.930939 -2.265724
  H 4.647835 -1.272159 -3.111284
  O 6.498314 -1.001639 -2.452496
  H 3.864694 1.470699 1.399802
  H 3.861534 -0.131912 2.044735
  H 1.722852 0.358321 3.296670
  H 1.726821 1.992488 2.639143
  H 3.918145 0.796310 4.404640
  H 2.698219 1.955775 4.913552
  H 3.922256 2.434550 3.745563
  H 2.558300 -0.745459 -1.799776
  H 5.211532 -0.141817 -0.294813
  H 7.045439 -0.694993 -1.700960
 20
 95.696800
  H 1.204421 0.213566 0.579548
  C 2.264339 0.248846 0.670605
  C 3.120171 0.670978 1.722453
  C 2.372257 1.172471 2.963977
  C 3.357460 1.603633 4.042746
  C 3.221702 -0.482035 -1.142494
  C 4.564729 -0.480864 -1.142683
  C 5.276673 -0.921397 -2.240641
  H 4.754270 -1.279243 -3.122235
  O 6.576816 -0.956393 -2.340072
  H 3.803887 1.453878 1.358517
  H 3.800324 -0.148454 2.003575
  H 1.731691 0.380722 3.352027
  H 1.736243 2.015447 2.694358
  H 3.989175 0.773162 4.348682
  H 2.820415 1.957499 4.918652
  H 3.993926 2.411420 3.689595
  H 2.490673 -0.770283 -1.858793
  H 5.112147 -0.132868 -0.279518
  H 7.065915 -0.632708 -1.548612
 20
 113.425130
  H 1.149408 0.229773 0.619474
  C 2.213928 0.269777 0.722675
  C 3.080393 0.686680 1.762251
  C 2.350240 1.195523 3.021023
  C 3.355488 1.620448 4.085190
  C 3.243237 -0.513964 -1.222422
  C 4.581319 -0.505715 -1.205998
  C 5.334115 -0.949596 -2.310100
  H 4.838200 -1.312600 -3.201105
  O 6.621682 -0.972470 -2.380733
  H 3.762744 1.466856 1.389459
  H 3.758575 -0.137214 2.035443
  H 1.709975 0.406522 3.417985
  H 1.715313 2.043134 2.759370
  H 3.985914 0.785812 4.382506
  H 2.832908 1.977906 4.969127
  H 3.991462 2.424635 3.722896
  H 2.499590 -0.800500 -1.933119
  H 5.111989 -0.151790 -0.331370
  H 7.085591 -0.645804 -1.582947
 20
 128.090251
  H 1.108322 0.250895 0.671850
  C 2.168301 0.292759 0.780267
  C 3.041949 0.702964 1.803478
  C 2.329158 1.215185 3.069643
  C 3.349729 1.634171 4.119314
  C 3.265177 -0.544866 -1.298730
  C 4.604993 -0.531802 -1.270244
  C 5.371248 -0.969850 -2.360708
  H 4.887827 -1.335288 -3.258010
  O 6.661587 -0.985144 -2.413753
  H 3.722786 1.479697 1.423531
  H 3.718175 -0.123618 2.069461
  H 1.690232 0.429499 3.473277
  H 1.696046 2.065273 2.814675
  H 3.979174 0.796141 4.408828
  H 2.839853 1.994340 5.009191
  H 3.985192 2.434956 3.748825
  H 2.515644 -0.827526 -2.000066
  H 5.126024 -0.175728 -0.390007
  H 7.113010 -0.656160 -1.610018
 20
 139.964785
  H 1.059746 0.267965 0.713696
  C 2.122187 0.312237 0.829135
  C 3.006471 0.721817 1.851226
  C 2.305828 1.239176 3.128794
  C 3.339987 1.653781 4.168109
  C 3.292636 -0.578314 -1.380973
  C 4.623984 -0.560634 -1.340726
  C 5.410601 -0.994981 -2.423375
  H 4.942868 -1.362902 -3.327447
  O 6.703847 -1.001789 -2.457370
  H 3.687665 1.497173 1.465876
  H 3.682467 -0.107909 2.112826
  H 1.667377 0.455622 3.538235
  H 1.673877 2.092096 2.878982
  H 3.968485 0.812968 4.451644
  H 2.840138 2.016418 5.063121
  H 3.975159 2.451818 3.791206
  H 2.537617 -0.859619 -2.079253
  H 5.133162 -0.202326 -0.454521
  H 7.141376 -0.669930 -1.646499
 20
 148.124738
  H 1.030138 0.299549 0.791224
  C 2.095981 0.337080 0.891646
  C 2.955461 0.746243 1.913210
  C 2.268820 1.267694 3.198816
  C 3.311615 1.679532 4.232341
  C 3.333229 -0.607699 -1.452630
  C 4.672855 -0.595500 -1.425372
  C 5.452136 -1.028696 -2.507195
  H 4.980174 -1.397012 -3.413042
  O 6.741128 -1.036108 -2.546437
  H 3.635876 1.515520 1.523253
  H 3.629634 -0.082983 2.167972
  H 1.630985 0.486929 3.613071
  H 1.638663 2.122591 2.953626
  H 3.939089 0.836702 4.512022
  H 2.819802 2.044329 5.131135
  H 3.946943 2.475376 3.851094
  H 2.583531 -0.890470 -2.154871
  H 5.188613 -0.238804 -0.542700
  H 7.186897 -0.702637 -1.732132
 20
 151.345012
  H 1.000856 0.330815 0.867467
  C 2.075284 0.358969 0.946441
  C 2.904280 0.779581 1.997052
  C 2.223361 1.303959 3.287877
  C 3.265710 1.715812 4.323052
  C 3.390044 -0.638421 -1.526984
  C 4.728823 -0.635538 -1.522160
  C 5.495355 -1.072077 -2.615060
  H 5.011193 -1.438598 -3.517370
  O 6.779294 -1.085109 -2.673002
  H 3.589586 1.545051 1.605468
  H 3.582070 -0.048874 2.248633
  H 1.584593 0.523808 3.703587
  H 1.593668 2.160255 3.043468
  H 3.892545 0.872491 4.603224
  H 2.775342 2.081498 5.222512
  H 3.901790 2.511266 3.941879
  H 2.653950 -0.927970 -2.246128
  H 5.256865 -0.281206 -0.644855
  H 7.240128 -0.754948 -1.867411
 20
 152.337999
  H 0.987619 0.371987 0.968616
  C 2.063951 0.388808 1.021158
  C 2.860465 0.815633 2.087756
  C 2.176260 1.337148 3.369263
  C 3.209604 1.750346 4.409431
  C 3.443859 -0.663405 -1.587075
  C 4.790580 -0.672525 -1.611611
  C 5.531175 -1.112785 -2.716652
  H 5.025419 -1.475642 -3.610418
  O 6.805160 -1.135332 -2.802670
  H 3.549616 1.578993 1.698050
  H 3.540686 -0.010982 2.339960
  H 1.536089 0.556232 3.781341
  H 1.546678 2.192409 3.120975
  H 3.836020 0.907959 4.693549
  H 2.713966 2.115499 5.305829
  H 3.846792 2.546718 4.031834
  H 2.720512 -0.957997 -2.318466
  H 5.337716 -0.322183 -0.743964
  H 7.292293 -0.808796 -2.006025
 20
 152.997809
  H 0.965549 0.407986 1.057151
  C 2.048894 0.416885 1.091040
  C 2.824789 0.853724 2.182908
  C 2.127906 1.373653 3.459301
  C 3.150575 1.790734 4.510550
  C 3.499301 -0.689132 -1.649576
  C 4.841026 -0.707607 -1.697383
  C 5.563347 -1.153011 -2.817003
  H 5.040389 -1.512344 -3.701353
  O 6.833850 -1.183827 -2.926458
  H 3.518484 1.617084 1.797314
  H 3.508607 0.029201 2.438401
  H 1.485567 0.590430 3.865807
  H 1.497183 2.227407 3.205134
  H 3.777132 0.950364 4.800813
  H 2.645492 2.154529 5.402653
  H 3.788931 2.589208 4.139080
  H 2.785659 -0.989139 -2.393685
  H 5.402758 -0.360314 -0.837669
  H 7.338152 -0.863257 -2.144623
 20
 153.649161
  H 0.945201 0.450357 1.161612
  C 2.028298 0.452426 1.179043
  C 2.785265 0.890090 2.273239
  C 2.083119 1.407059 3.541840
  C 3.098647 1.825107 4.596926
  C 3.537752 -0.709614 -1.699092
  C 4.884794 -0.734931 -1.764327
  C 5.589163 -1.182475 -2.890049
  H 5.050737 -1.539293 -3.766682
  O 6.853641 -1.219257 -3.016729
  H 3.481110 1.651209 1.889049
  H 3.470554 0.067569 2.528325
  H 1.439977 0.623177 3.944474
  H 1.452320 2.259143 3.284423
  H 3.724930 0.985730 4.890058
  H 2.588614 2.187885 5.486153
  H 3.737514 2.624427 4.228625
  H 2.827596 -1.010860 -2.444989
  H 5.458826 -0.390004 -0.911541
  H 7.375501 -0.900543 -2.240359
