 21
 0.000000
  C 0.902505 0.049715 0.208242
  C 2.402102 0.057793 0.089236
  C 3.246535 -0.014904 1.349513
  C 2.525092 -0.084202 2.693080
  C 3.528316 -0.150804 3.839879
  C 3.010716 0.126514 -1.088362
  C 2.364839 0.201954 -2.434595
  H 1.280900 0.199482 -2.433222
  H 4.091937 0.131290 -1.130743
  H 0.571751 -0.021086 1.238288
  H 0.480023 -0.803292 -0.321370
  H 0.474286 0.964180 -0.198209
  H 3.901413 0.862290 1.369568
  H 3.892884 -0.895442 1.274197
  H 1.888291 -0.970687 2.734659
  H 1.896362 0.798467 2.829865
  H 4.159190 -1.032605 3.749298
  H 3.009312 -0.199979 4.794891
  H 4.167388 0.729721 3.844503
  H 2.705354 -0.640373 -3.039603
  H 2.701292 1.109284 -2.939623
 21
 3.686324
  C 0.900034 0.005267 0.204977
  C 2.374828 0.052138 0.096868
  C 3.239838 -0.022197 1.350555
  C 2.523214 -0.076353 2.695282
  C 3.527872 -0.144004 3.839791
  C 2.993009 0.136740 -1.077195
  C 2.354638 0.209501 -2.426790
  H 1.270855 0.181662 -2.376449
  H 4.075976 0.165117 -1.096435
  H 0.530851 -0.041407 1.216233
  H 0.460768 -0.806845 -0.367136
  H 0.683861 0.940906 -0.235360
  H 3.906023 0.844847 1.356465
  H 3.879390 -0.905963 1.272146
  H 1.879843 -0.957518 2.741843
  H 1.902705 0.813328 2.824473
  H 4.151104 -1.031400 3.750088
  H 3.013519 -0.182550 4.797539
  H 4.174966 0.730747 3.833976
  H 2.695361 -0.623236 -3.043256
  H 2.657477 1.128209 -2.931136
 21
 11.407994
  C 0.889435 -0.035308 0.221985
  C 2.370431 0.039815 0.102228
  C 3.245745 -0.034611 1.344721
  C 2.522213 -0.069008 2.689750
  C 3.520359 -0.136713 3.840264
  C 2.982948 0.148693 -1.072689
  C 2.341499 0.214385 -2.426748
  H 1.259332 0.150435 -2.380040
  H 4.060420 0.217941 -1.088667
  H 0.500736 -0.054142 1.229880
  H 0.428916 -0.808575 -0.388170
  H 0.869681 0.923242 -0.226718
  H 3.926045 0.825350 1.341376
  H 3.873701 -0.929828 1.270008
  H 1.869288 -0.942512 2.739450
  H 1.909825 0.827761 2.806139
  H 4.134886 -1.030828 3.761081
  H 3.001190 -0.161424 4.795559
  H 4.176815 0.730752 3.829669
  H 2.706678 -0.600104 -3.048918
  H 2.612903 1.145542 -2.921104
 21
 21.817033
  C 0.882528 -0.067955 0.247443
  C 2.368544 0.037867 0.110390
  C 3.235731 -0.035286 1.333265
  C 2.514535 -0.061343 2.675393
  C 3.513128 -0.130190 3.825202
  C 2.983188 0.155903 -1.065607
  C 2.340163 0.221333 -2.422137
  H 1.260591 0.148814 -2.378597
  H 4.057686 0.234627 -1.080268
  H 0.488574 -0.074720 1.254750
  H 0.413153 -0.807299 -0.375937
  H 1.015647 0.892158 -0.194583
  H 3.919755 0.820200 1.325024
  H 3.855765 -0.935282 1.257294
  H 1.856731 -0.931723 2.727650
  H 1.906144 0.838766 2.788507
  H 4.123290 -1.027708 3.748444
  H 2.994499 -0.149276 4.780608
  H 4.174084 0.733994 3.811568
  H 2.710781 -0.587511 -3.046946
  H 2.603247 1.155728 -2.913171
 21
 31.859361
  C 0.856895 -0.094728 0.229696
  C 2.348684 0.035808 0.102409
  C 3.226747 -0.039902 1.342741
  C 2.518887 -0.052667 2.687973
  C 3.527526 -0.122749 3.826980
  C 2.975160 0.165016 -1.068973
  C 2.340784 0.223379 -2.419769
  H 1.259020 0.134544 -2.371593
  H 4.055483 0.262941 -1.073272
  H 0.441947 -0.115146 1.223746
  H 0.378542 -0.790645 -0.438663
  H 1.125231 0.879897 -0.175752
  H 3.918377 0.802038 1.329549
  H 3.833439 -0.942381 1.268749
  H 1.856000 -0.918081 2.751617
  H 1.918506 0.853376 2.801886
  H 4.130161 -1.025535 3.748653
  H 3.018128 -0.132827 4.787945
  H 4.194967 0.736548 3.801885
  H 2.724258 -0.583015 -3.048623
  H 2.591530 1.167486 -2.911236
 21
 40.960778
  C 0.853907 -0.114799 0.241791
  C 2.348880 0.037906 0.096207
  C 3.232559 -0.039652 1.331057
  C 2.513695 -0.046257 2.687683
  C 3.521036 -0.118567 3.838610
  C 2.976711 0.172556 -1.078415
  C 2.334873 0.222654 -2.433452
  H 1.255042 0.124480 -2.379207
  H 4.049060 0.284373 -1.080925
  H 0.459504 -0.151043 1.233825
  H 0.363388 -0.760402 -0.460406
  H 1.219940 0.865457 -0.116909
  H 3.938536 0.807116 1.315656
  H 3.835551 -0.956833 1.253056
  H 1.844561 -0.910032 2.750003
  H 1.914092 0.864636 2.796668
  H 4.120751 -1.024743 3.765496
  H 3.006676 -0.124475 4.798192
  H 4.193263 0.738353 3.815689
  H 2.719548 -0.578450 -3.062831
  H 2.572041 1.165535 -2.928445
 21
 48.085990
  C 0.856509 -0.138124 0.252359
  C 2.343140 0.034332 0.093481
  C 3.219360 -0.042949 1.329484
  C 2.509059 -0.040838 2.678493
  C 3.518883 -0.106841 3.821209
  C 2.978442 0.172230 -1.082288
  C 2.340963 0.226543 -2.424987
  H 1.253970 0.135478 -2.366993
  H 4.062841 0.282935 -1.083051
  H 0.471087 -0.212570 1.253538
  H 0.348094 -0.722480 -0.490786
  H 1.295514 0.855246 -0.046699
  H 3.925929 0.794978 1.311722
  H 3.811508 -0.957133 1.254735
  H 1.843013 -0.900434 2.749937
  H 1.911820 0.868828 2.784092
  H 4.116796 -1.012850 3.750363
  H 3.009463 -0.106858 4.781348
  H 4.190756 0.748550 3.790177
  H 2.720737 -0.581003 -3.059928
  H 2.584750 1.176436 -2.922319
 21
 53.086939
  C 0.850824 -0.157971 0.244715
  C 2.339421 0.034589 0.086767
  C 3.216470 -0.046053 1.331216
  C 2.508943 -0.036232 2.687745
  C 3.528340 -0.095484 3.831052
  C 2.980592 0.175056 -1.089252
  C 2.341468 0.229444 -2.443055
  H 1.267270 0.143631 -2.386461
  H 4.050879 0.285887 -1.084050
  H 0.465761 -0.279665 1.238416
  H 0.331725 -0.666482 -0.532889
  H 1.355255 0.855185 0.011478
  H 3.923228 0.780987 1.311748
  H 3.803679 -0.963387 1.257217
  H 1.836458 -0.905878 2.769444
  H 1.908661 0.879737 2.791635
  H 4.129494 -1.006981 3.762057
  H 3.020153 -0.090215 4.799431
  H 4.203577 0.764534 3.792085
  H 2.713882 -0.573081 -3.074679
  H 2.582978 1.165365 -2.936903
 21
 57.089818
  C 0.855419 -0.177302 0.256864
  C 2.340929 0.032474 0.091445
  C 3.214972 -0.050122 1.333557
  C 2.508908 -0.033378 2.684497
  C 3.520692 -0.084274 3.819712
  C 2.987124 0.173827 -1.085578
  C 2.344020 0.234399 -2.448935
  H 1.246638 0.155451 -2.389752
  H 4.068157 0.280825 -1.075861
  H 0.476306 -0.339026 1.243862
  H 0.316180 -0.620418 -0.548540
  H 1.410675 0.846360 0.078303
  H 3.931288 0.781238 1.312632
  H 3.800224 -0.974062 1.261785
  H 1.846394 -0.891828 2.771012
  H 1.912411 0.873337 2.781880
  H 4.118692 -0.988818 3.756103
  H 3.016075 -0.074418 4.780553
  H 4.189964 0.770633 3.776184
  H 2.711447 -0.575372 -3.085440
  H 2.593606 1.175182 -2.947876
 21
 60.377059
  C 0.858774 -0.190875 0.256274
  C 2.337768 0.031662 0.091038
  C 3.210198 -0.054259 1.325956
  C 2.507271 -0.029478 2.681043
  C 3.526564 -0.071637 3.815919
  C 2.986894 0.175354 -1.091669
  C 2.351277 0.237660 -2.437937
  H 1.260707 0.162194 -2.380046
  H 4.071252 0.284734 -1.081756
  H 0.482009 -0.386280 1.229357
  H 0.297156 -0.575577 -0.583925
  H 1.455430 0.836365 0.126297
  H 3.924220 0.766768 1.299578
  H 3.789201 -0.978342 1.253715
  H 1.835561 -0.902166 2.778147
  H 1.907336 0.882221 2.775415
  H 4.129125 -0.981687 3.755461
  H 3.023045 -0.056125 4.782983
  H 4.198659 0.789110 3.764051
  H 2.712485 -0.562400 -3.065449
  H 2.599954 1.164210 -2.930302
 21
 63.049073
  C 0.852762 -0.212396 0.252425
  C 2.332691 0.025757 0.092278
  C 3.208334 -0.062196 1.330954
  C 2.510444 -0.028711 2.682607
  C 3.535033 -0.058930 3.820291
  C 2.986772 0.171614 -1.090218
  C 2.353765 0.247283 -2.447418
  H 1.266980 0.182650 -2.395208
  H 4.069711 0.274087 -1.075125
  H 0.468857 -0.435160 1.221376
  H 0.287071 -0.535114 -0.601245
  H 1.487192 0.824359 0.163196
  H 3.925836 0.756973 1.300284
  H 3.782092 -0.986063 1.261964
  H 1.846863 -0.896366 2.786662
  H 1.905745 0.884165 2.769979
  H 4.139965 -0.965883 3.766512
  H 3.033454 -0.037677 4.788242
  H 4.203454 0.802274 3.761243
  H 2.712418 -0.561672 -3.083261
  H 2.614752 1.181608 -2.939652
 21
 65.550482
  C 0.850902 -0.222832 0.252673
  C 2.339095 0.034299 0.090450
  C 3.220668 -0.064338 1.329257
  C 2.515628 -0.026154 2.683918
  C 3.528712 -0.054321 3.819182
  C 2.990349 0.180502 -1.098919
  C 2.357500 0.243073 -2.444641
  H 1.272835 0.168840 -2.388126
  H 4.063500 0.300709 -1.086904
  H 0.466204 -0.465388 1.220055
  H 0.276259 -0.489714 -0.606706
  H 1.521002 0.827334 0.191876
  H 3.949113 0.755238 1.299279
  H 3.790590 -0.997589 1.259265
  H 1.855704 -0.885338 2.787251
  H 1.915311 0.879912 2.766870
  H 4.130439 -0.957935 3.769721
  H 3.024716 -0.030706 4.780865
  H 4.194909 0.802824 3.760910
  H 2.720326 -0.564384 -3.076086
  H 2.608537 1.177820 -2.942432
 21
 67.903017
  C 0.848516 -0.240671 0.251063
  C 2.335044 0.035678 0.093506
  C 3.219815 -0.068795 1.333453
  C 2.518467 -0.024994 2.679109
  C 3.539048 -0.046475 3.825373
  C 2.990890 0.182259 -1.095813
  C 2.360027 0.250093 -2.451643
  H 1.276497 0.181382 -2.401042
  H 4.069061 0.300345 -1.078794
  H 0.457513 -0.491411 1.214435
  H 0.271227 -0.462905 -0.616635
  H 1.544394 0.819578 0.212465
  H 3.952516 0.748165 1.302587
  H 3.783508 -1.000949 1.266129
  H 1.863492 -0.879918 2.784954
  H 1.911190 0.888246 2.757214
  H 4.141533 -0.947124 3.781436
  H 3.035490 -0.019399 4.784647
  H 4.202609 0.809680 3.764435
  H 2.721358 -0.559088 -3.083337
  H 2.618016 1.182904 -2.948254
 21
 70.089667
  C 0.852441 -0.257901 0.253516
  C 2.341570 0.039146 0.098064
  C 3.226079 -0.070369 1.331415
  C 2.521847 -0.020077 2.685957
  C 3.536151 -0.035836 3.823694
  C 2.997276 0.185671 -1.096125
  C 2.364334 0.257426 -2.452879
  H 1.277935 0.193748 -2.401285
  H 4.065807 0.301093 -1.079336
  H 0.460185 -0.506758 1.208207
  H 0.263715 -0.443214 -0.623583
  H 1.572623 0.816498 0.228938
  H 3.962460 0.742571 1.296961
  H 3.785278 -1.007924 1.263563
  H 1.863527 -0.878236 2.796428
  H 1.920867 0.883068 2.759467
  H 4.143780 -0.944346 3.782175
  H 3.027964 -0.004504 4.792440
  H 4.204805 0.827758 3.757560
  H 2.722267 -0.558239 -3.088885
  H 2.627940 1.195935 -2.953956
