 21
 0.000000
  C 0.833289 0.046383 0.313713
  C 2.320661 0.058201 0.104228
  C 3.228699 -0.010619 1.323961
  C 2.572252 -0.088148 2.697875
  H 3.336645 -0.131575 3.467567
  C 2.914108 0.125298 -1.084850
  C 2.376649 0.204602 -2.490297
  C 0.875760 0.219728 -2.758284
  H 0.703078 0.280169 -3.829466
  H 3.997967 0.125901 -1.095513
  H 0.567283 -0.012880 1.363941
  H 0.381794 -0.814439 -0.172878
  H 0.381795 0.956483 -0.072949
  H 3.876644 0.871324 1.313275
  H 3.876647 -0.885763 1.214129
  H 1.951525 -0.978788 2.784699
  H 1.951529 0.787055 2.884342
  H 2.802748 -0.643098 -3.041011
  H 2.802749 1.108877 -2.942154
  H 0.400882 1.078921 -2.293582
  H 0.400875 -0.686296 -2.393185
 21
 10.456359
  C 0.706775 0.047371 0.296196
  C 2.320938 0.060688 0.060148
  C 3.302858 -0.014238 1.388085
  C 2.631195 -0.091097 2.750130
  H 3.388303 -0.135018 3.528552
  C 2.912009 0.127015 -1.115292
  C 2.384867 0.206365 -2.521548
  C 0.886024 0.221757 -2.794252
  H 0.717989 0.282310 -3.867404
  H 3.996853 0.127240 -1.119243
  H 0.453624 -0.012047 1.349160
  H 0.257576 -0.812601 -0.188909
  H 0.257577 0.956459 -0.089085
  H 3.948223 0.866591 1.377078
  H 3.948227 -0.888238 1.278059
  H 2.009393 -0.981051 2.829970
  H 2.009390 0.784217 2.929581
  H 2.814442 -0.641380 -3.069353
  H 2.814443 1.110357 -2.970508
  H 0.409760 1.080927 -2.331529
  H 0.409756 -0.684017 -2.431118
 21
 32.053045
  C 0.610387 0.043475 0.365114
  C 2.322107 0.063559 0.009154
  C 3.374245 -0.018475 1.463059
  C 2.622294 -0.091889 2.764217
  H 3.338788 -0.138239 3.585910
  C 2.918834 0.130977 -1.185569
  C 2.401772 0.210484 -2.594502
  C 0.900460 0.224105 -2.835851
  H 0.713272 0.284589 -3.907563
  H 4.009596 0.130594 -1.178726
  H 0.486315 -0.016862 1.434306
  H 0.177936 -0.824784 -0.104767
  H 0.177938 0.959084 -0.004102
  H 4.010266 0.859454 1.439144
  H 4.010281 -0.888138 1.340533
  H 1.995845 -0.980267 2.808733
  H 1.995847 0.785845 2.908378
  H 2.834122 -0.633713 -3.145320
  H 2.834123 1.111282 -3.046849
  H 0.434065 1.082678 -2.362276
  H 0.434055 -0.682286 -2.461868
