 9
 0.000000
  C 0.968362 0.157054 0.440822
  C 2.405827 0.130670 0.368820
  H 2.998606 0.467536 1.209230
  C 3.028815 -0.330866 -0.769487
  H 4.100288 -0.377264 -0.866910
  H 0.571458 0.528144 1.379960
  H 0.566746 -0.843122 0.201986
  H 0.541836 0.711039 -0.412791
  H 2.417340 -0.661238 -1.597295
 9
 1.815263
  C 0.992162 0.170788 0.431012
  C 2.425266 0.162318 0.397095
  H 3.019498 0.502604 1.240189
  C 3.005217 -0.339277 -0.740844
  H 4.067282 -0.390201 -0.910895
  H 0.535815 0.473550 1.372338
  H 0.689397 -0.827887 0.063220
  H 0.558713 0.748615 -0.409135
  H 2.310275 -0.719454 -1.488600
 9
 5.439998
  C 1.003292 0.173525 0.419142
  C 2.438245 0.201972 0.407083
  H 3.029732 0.566005 1.238869
  C 2.991027 -0.361001 -0.717808
  H 4.040359 -0.424969 -0.936621
  H 0.514058 0.381480 1.362337
  H 0.798974 -0.792198 -0.093804
  H 0.556625 0.820525 -0.358572
  H 2.232292 -0.791379 -1.374121
 9
 11.363536
  C 1.014822 0.166958 0.405766
  C 2.449919 0.236812 0.412520
  H 3.032423 0.634711 1.224268
  C 2.982785 -0.378827 -0.697748
  H 4.022808 -0.479220 -0.947922
  H 0.494698 0.294883 1.351749
  H 0.892781 -0.759765 -0.219756
  H 0.560685 0.863380 -0.311693
  H 2.152928 -0.816238 -1.282858
 9
 18.660369
  C 1.026113 0.158949 0.396014
  C 2.458629 0.271436 0.406805
  H 3.036897 0.709089 1.200242
  C 2.974782 -0.391196 -0.681380
  H 3.998844 -0.554948 -0.927787
  H 0.496420 0.200148 1.344578
  H 0.974640 -0.727639 -0.328628
  H 0.548593 0.894617 -0.271897
  H 2.085190 -0.811814 -1.218972
 9
 26.878680
  C 1.036018 0.156399 0.389730
  C 2.466426 0.305477 0.398656
  H 3.037502 0.777442 1.177087
  C 2.963482 -0.394544 -0.663351
  H 3.979608 -0.638396 -0.896676
  H 0.513486 0.111187 1.338459
  H 1.044759 -0.705692 -0.412126
  H 0.533384 0.907579 -0.245984
  H 2.018871 -0.788910 -1.183460
 9
 34.627822
  C 1.041194 0.161378 0.382723
  C 2.478514 0.336386 0.392704
  H 3.039767 0.839615 1.156548
  C 2.956185 -0.389825 -0.637617
  H 3.947353 -0.717157 -0.875157
  H 0.530199 0.019482 1.326651
  H 1.097460 -0.692012 -0.479145
  H 0.527453 0.916595 -0.229271
  H 1.966816 -0.770066 -1.153893
 9
 42.329744
  C 1.041166 0.170696 0.376805
  C 2.487355 0.346356 0.394425
  H 3.039147 0.870549 1.151480
  C 2.960394 -0.388005 -0.612928
  H 3.930484 -0.750822 -0.885484
  H 0.535342 -0.030274 1.312619
  H 1.128414 -0.701714 -0.527484
  H 0.527172 0.928129 -0.222457
  H 1.923518 -0.779556 -1.127203
 9
 48.903742
  C 1.037170 0.183676 0.377779
  C 2.490568 0.347297 0.393744
  H 3.035049 0.895907 1.139555
  C 2.976100 -0.394524 -0.592429
  H 3.929464 -0.777626 -0.893006
  H 0.539229 -0.068603 1.304361
  H 1.140893 -0.715881 -0.578189
  H 0.516375 0.943926 -0.206887
  H 1.891193 -0.797891 -1.117282
 9
 54.617368
  C 1.032883 0.199228 0.381928
  C 2.489823 0.340134 0.391913
  H 3.030014 0.909207 1.127232
  C 2.993040 -0.402033 -0.576344
  H 3.936792 -0.788149 -0.900115
  H 0.540937 -0.091203 1.300166
  H 1.139580 -0.740654 -0.626051
  H 0.505915 0.959343 -0.192497
  H 1.863186 -0.826656 -1.121304
 9
 60.733284
  C 1.028120 0.219153 0.392751
  C 2.485936 0.329891 0.387741
  H 3.024986 0.918000 1.111268
  C 3.011303 -0.410686 -0.561416
  H 3.950867 -0.789585 -0.901982
  H 0.541826 -0.105874 1.301615
  H 1.130967 -0.775714 -0.684527
  H 0.494875 0.976952 -0.175484
  H 1.831631 -0.867790 -1.140558
 9
 66.767845
  C 1.022444 0.248350 0.411445
  C 2.477165 0.316438 0.382243
  H 3.020814 0.910207 1.102807
  C 3.030124 -0.409907 -0.553587
  H 3.969676 -0.776534 -0.906584
  H 0.539041 -0.099584 1.313057
  H 1.115499 -0.835085 -0.752586
  H 0.485495 0.995073 -0.163145
  H 1.799102 -0.930142 -1.178629
 9
 72.108962
  C 1.016727 0.285546 0.440044
  C 2.459462 0.299427 0.371097
  H 3.013464 0.889541 1.094125
  C 3.046796 -0.405549 -0.547829
  H 3.985704 -0.759960 -0.911597
  H 0.537952 -0.072477 1.339461
  H 1.099103 -0.921592 -0.838231
  H 0.473374 1.011187 -0.150742
  H 1.774985 -1.007373 -1.242651
 9
 76.044855
  C 1.009430 0.328128 0.477445
  C 2.428515 0.275341 0.351235
  H 2.998862 0.861205 1.074422
  C 3.057850 -0.405246 -0.543775
  H 3.993836 -0.748831 -0.916772
  H 0.542460 -0.022594 1.384000
  H 1.089975 -1.041409 -0.949802
  H 0.456508 1.028270 -0.130996
  H 1.770086 -1.101594 -1.338130
