 21
 0.000000
  H 1.486694 0.056340 0.137270
  C 2.558172 0.063423 0.011700
  C 3.364349 -0.008095 1.279211
  C 2.500738 -0.079082 2.537186
  C 3.352718 -0.150371 3.800621
  C 3.100739 0.131262 -1.190536
  C 2.376848 0.205294 -2.502566
  C 0.853391 0.200685 -2.420807
  H 0.426588 0.257089 -3.420430
  H 4.179595 0.136805 -1.288756
  H 4.016463 0.869124 1.345476
  H 4.016460 -0.887191 1.246375
  H 1.857506 -0.961607 2.490015
  H 1.857509 0.803134 2.589591
  H 3.988526 -1.033551 3.785685
  H 2.720146 -0.200282 4.685143
  H 3.988519 0.728877 3.885131
  H 2.702474 -0.638287 -3.123367
  H 2.702476 1.113358 -3.024526
  H 0.495458 1.053899 -1.848031
  H 0.495453 -0.711553 -1.947645
 21
 12.329848
  H 1.509073 0.056107 0.141386
  C 2.577301 0.063945 0.002467
  C 3.414048 -0.005668 1.236198
  C 2.460171 -0.085132 2.644386
  C 3.331166 -0.155142 3.885150
  C 3.126286 0.136864 -1.289794
  C 2.366175 0.209385 -2.575041
  C 0.848897 0.201748 -2.439640
  H 0.386911 0.257240 -3.423125
  H 4.201999 0.143168 -1.401501
  H 4.058612 0.871198 1.311508
  H 4.058617 -0.885438 1.212388
  H 1.823817 -0.966675 2.583341
  H 1.823809 0.797679 2.682895
  H 3.967624 -1.037391 3.860093
  H 2.711738 -0.205571 4.778843
  H 3.967617 0.724322 3.959500
  H 2.674088 -0.633626 -3.204487
  H 2.674085 1.117846 -3.105653
  H 0.511099 1.053873 -1.854329
  H 0.511097 -0.710815 -1.953901
 21
 35.737029
  H 1.566922 0.058011 0.107517
  C 2.626640 0.066192 -0.037451
  C 3.509383 -0.000954 1.152566
  C 2.397785 -0.091014 2.748457
  C 3.295280 -0.159318 3.958987
  C 3.146541 0.140760 -1.358938
  C 2.343927 0.211951 -2.620569
  C 0.836652 0.201306 -2.431830
  H 0.340492 0.255912 -3.399524
  H 4.222149 0.147377 -1.476215
  H 4.114680 0.878513 1.302946
  H 4.114674 -0.891729 1.203055
  H 1.796405 -0.977285 2.602889
  H 1.796353 0.806057 2.703510
  H 3.930665 -1.041051 3.924860
  H 2.693854 -0.210419 4.864556
  H 3.930668 0.720681 4.024271
  H 2.632089 -0.629595 -3.258057
  H 2.632099 1.119884 -3.159348
  H 0.519039 1.054294 -1.834547
  H 0.519031 -0.713466 -1.934289
 21
 62.133237
  H 1.620064 0.059756 0.077024
  C 2.682831 0.069647 -0.098361
  C 3.591317 0.004742 1.051761
  C 2.334647 -0.098021 2.872826
  C 3.256297 -0.164035 4.042579
  C 3.165107 0.144548 -1.425868
  C 2.331918 0.214267 -2.661693
  C 0.826282 0.201254 -2.431114
  H 0.302881 0.255086 -3.385097
  H 4.233206 0.152863 -1.573136
  H 4.172568 0.894691 1.249902
  H 4.172557 -0.901855 1.148519
  H 1.758953 -0.991580 2.682416
  H 1.758968 0.811282 2.784154
  H 3.891212 -1.046776 3.994472
  H 2.679388 -0.216343 4.969681
  H 3.891227 0.718535 4.094084
  H 2.603019 -0.627682 -3.306980
  H 2.603002 1.123463 -3.208165
  H 0.521403 1.053228 -1.825431
  H 0.521412 -0.713421 -1.925121
 21
 83.586213
  H 1.690853 0.062146 0.034008
  C 2.749951 0.073973 -0.175451
  C 3.680499 0.010461 0.950452
  C 2.269494 -0.105454 3.004335
  C 3.215338 -0.169826 4.145567
  C 3.181691 0.148713 -1.500007
  C 2.311036 0.216928 -2.708659
  C 0.812168 0.201292 -2.431244
  H 0.259444 0.254212 -3.368866
  H 4.246277 0.159592 -1.692968
  H 4.231169 0.903523 1.192779
  H 4.231204 -0.904173 1.090784
  H 1.720667 -1.002735 2.768569
  H 1.720632 0.812632 2.870998
  H 3.847163 -1.052371 4.084125
  H 2.661519 -0.223187 5.091184
  H 3.847108 0.714034 4.183788
  H 2.566570 -0.625820 -3.360776
  H 2.566581 1.127633 -3.261786
  H 0.526230 1.053833 -1.816063
  H 0.526204 -0.715052 -1.915880
