 14
 0.000000
  H 1.399709 0.126455 0.361913
  C 2.480040 0.135154 0.386597
  C 3.153711 0.617593 1.588689
  H 2.461748 0.929589 2.362982
  C 3.129095 -0.320355 -0.745130
  C 4.516891 -0.383655 -0.901557
  C 5.119852 -0.847047 -2.056429
  H 4.559972 -1.194053 -2.918684
  O 6.395362 -0.920483 -2.244041
  H 3.813729 1.452856 1.341515
  H 3.811828 -0.157742 1.988856
  H 2.512460 -0.650710 -1.568606
  H 5.153665 -0.057759 -0.089517
  H 6.948826 -0.616491 -1.493467
 14
 5.046041
  H 1.424020 0.101856 0.301408
  C 2.503311 0.125455 0.362336
  C 3.079878 0.629341 1.618306
  H 2.320575 0.918009 2.336085
  C 3.228166 -0.306952 -0.713022
  C 4.601070 -0.379408 -0.892892
  C 5.146323 -0.857331 -2.082252
  H 4.493732 -1.183387 -2.889896
  O 6.415470 -0.966724 -2.357850
  H 3.732119 1.482241 1.423397
  H 3.730741 -0.122747 2.067296
  H 2.479247 -0.584694 -1.406090
  H 5.252716 -0.058137 -0.092759
  H 7.032228 -0.678887 -1.648156
 14
 15.795756
  H 1.453363 0.089794 0.276979
  C 2.518225 0.123315 0.358190
  C 3.033577 0.628088 1.616585
  H 2.243980 0.905188 2.309790
  C 3.281263 -0.297159 -0.692453
  C 4.650102 -0.380033 -0.902731
  C 5.163149 -0.862870 -2.098177
  H 4.491371 -1.180250 -2.884723
  O 6.406198 -0.984326 -2.394617
  H 3.686222 1.495644 1.440826
  H 3.687391 -0.119810 2.088320
  H 2.428692 -0.522600 -1.252203
  H 5.316430 -0.060340 -0.112203
  H 7.038144 -0.703781 -1.697405
 14
 29.543804
  H 1.443196 0.081318 0.257189
  C 2.515915 0.117165 0.343557
  C 3.006042 0.635304 1.636867
  H 2.209296 0.904325 2.311268
  C 3.317174 -0.296690 -0.695178
  C 4.680033 -0.383124 -0.918179
  C 5.175577 -0.868886 -2.113552
  H 4.489841 -1.186371 -2.898714
  O 6.417168 -0.997365 -2.421027
  H 3.644187 1.489977 1.479807
  H 3.646032 -0.090115 2.113191
  H 2.381798 -0.476494 -1.136915
  H 5.358522 -0.063239 -0.135187
  H 7.058625 -0.718591 -1.726132
 14
 43.961652
  H 1.435469 0.084605 0.259132
  C 2.508006 0.114335 0.336558
  C 2.976155 0.637057 1.644868
  H 2.158612 0.906396 2.316992
  C 3.338755 -0.298024 -0.701036
  C 4.698783 -0.384345 -0.925043
  C 5.187513 -0.874853 -2.125324
  H 4.498922 -1.191801 -2.903087
  O 6.429179 -1.006112 -2.440742
  H 3.620893 1.503298 1.493664
  H 3.620463 -0.093261 2.135256
  H 2.348741 -0.435262 -1.035102
  H 5.386081 -0.064860 -0.150573
  H 7.067670 -0.728604 -1.755169
 14
 57.025280
  H 1.409660 0.129199 0.257406
  C 2.490989 0.111511 0.330695
  C 2.971705 0.613106 1.647148
  H 2.163414 0.901000 2.314129
  C 3.335214 -0.287123 -0.720348
  C 4.694383 -0.360139 -0.937565
  C 5.193507 -0.892781 -2.116979
  H 4.511768 -1.248835 -2.882817
  O 6.436507 -1.015400 -2.426739
  H 3.639185 1.464087 1.489782
  H 3.598297 -0.131636 2.146107
  H 2.300819 -0.394754 -0.955685
  H 5.376511 0.009199 -0.185377
  H 7.074826 -0.702312 -1.743542
 14
 64.800024
  H 1.394936 0.229047 0.239345
  C 2.468656 0.111968 0.310370
  C 2.977106 0.554500 1.666509
  H 2.169189 0.882963 2.308475
  C 3.336486 -0.233219 -0.713320
  C 4.690847 -0.313995 -0.961627
  C 5.193278 -0.940533 -2.080570
  H 4.526071 -1.389119 -2.806501
  O 6.444282 -1.036261 -2.404943
  H 3.675770 1.372108 1.483224
  H 3.539289 -0.215914 2.196816
  H 2.261195 -0.335602 -0.913095
  H 5.370541 0.170058 -0.268888
  H 7.066611 -0.628040 -1.766817
 14
 68.107859
  H 1.382542 0.304792 0.227221
  C 2.458666 0.116289 0.299150
  C 2.959953 0.514898 1.686409
  H 2.142675 0.854892 2.305320
  C 3.362283 -0.168723 -0.686980
  C 4.704433 -0.251130 -0.991177
  C 5.191661 -0.973951 -2.049123
  H 4.524269 -1.524075 -2.707200
  O 6.441931 -1.072809 -2.397373
  H 3.684825 1.315064 1.542340
  H 3.466104 -0.299809 2.204626
  H 2.257741 -0.289620 -0.877938
  H 5.387516 0.332485 -0.379339
  H 7.061297 -0.587493 -1.817256
 14
 70.321892
  H 1.382945 0.387990 0.207313
  C 2.446207 0.120916 0.295897
  C 2.937163 0.478349 1.703365
  H 2.118365 0.847946 2.310090
  C 3.382300 -0.121597 -0.672250
  C 4.711615 -0.203210 -1.011415
  C 5.193531 -1.009156 -2.010699
  H 4.531495 -1.634242 -2.595139
  O 6.437689 -1.094336 -2.394040
  H 3.699035 1.244215 1.595423
  H 3.387353 -0.370229 2.214101
  H 2.254187 -0.259615 -0.847671
  H 5.391195 0.459649 -0.484101
  H 7.053565 -0.530593 -1.886050
 14
 72.939765
  H 1.370561 0.427518 0.202966
  C 2.428275 0.126242 0.291294
  C 2.930172 0.459421 1.702673
  H 2.123216 0.845991 2.311151
  C 3.382460 -0.089331 -0.663197
  C 4.702131 -0.166616 -1.026610
  C 5.188037 -1.011823 -1.991011
  H 4.535701 -1.692136 -2.525679
  O 6.435004 -1.101326 -2.372766
  H 3.706688 1.198059 1.606908
  H 3.358540 -0.416513 2.210024
  H 2.238180 -0.243464 -0.818084
  H 5.377865 0.529557 -0.541802
  H 7.041892 -0.498461 -1.900424
 14
 73.408401
  H 1.369375 0.509878 0.188435
  C 2.402392 0.139330 0.286813
  C 2.924796 0.416137 1.703957
  H 2.147350 0.860835 2.311392
  C 3.378299 -0.048539 -0.664246
  C 4.687004 -0.120863 -1.047314
  C 5.189875 -1.031804 -1.943828
  H 4.561969 -1.786061 -2.396149
  O 6.435485 -1.102984 -2.342200
  H 3.770440 1.091853 1.626325
  H 3.265617 -0.490789 2.200956
  H 2.214495 -0.241935 -0.791137
  H 5.345361 0.641302 -0.640981
  H 7.016618 -0.424279 -1.948914
 14
 73.380333
  H 1.358079 0.581104 0.178392
  C 2.369014 0.156175 0.282649
  C 2.931497 0.377714 1.692077
  H 2.197112 0.874920 2.312109
  C 3.366388 -0.012174 -0.660401
  C 4.658892 -0.071491 -1.075491
  C 5.185173 -1.029455 -1.911429
  H 4.588674 -1.849462 -2.280840
  O 6.437435 -1.095905 -2.301474
  H 3.827095 0.985821 1.617406
  H 3.201191 -0.557725 2.177375
  H 2.184990 -0.270001 -0.755114
  H 5.296249 0.738654 -0.734382
  H 6.996990 -0.376138 -1.953900
 14
 72.154217
  H 1.357215 0.645571 0.145346
  C 2.346244 0.186509 0.279532
  C 2.915755 0.345373 1.692127
  H 2.213268 0.892004 2.312123
  C 3.382370 0.017509 -0.631186
  C 4.655480 -0.048659 -1.078766
  C 5.192274 -1.042395 -1.869750
  H 4.621291 -1.910421 -2.159233
  O 6.433555 -1.077266 -2.311413
  H 3.858996 0.880440 1.642420
  H 3.096702 -0.612465 2.168413
  H 2.186921 -0.311757 -0.708984
  H 5.272718 0.804786 -0.816058
  H 6.964217 -0.303786 -2.046355
