 19
 0.000000
  H 1.428489 0.165531 0.464073
  C 2.507761 0.141822 0.404469
  C 3.251351 0.612388 1.574038
  H 2.586805 0.931628 2.368474
  C 3.057827 -0.329279 -0.768131
  C 4.443623 -0.419419 -0.992868
  C 5.087711 -0.870927 -2.119202
  C 4.608056 -1.383552 -3.397962
  C 3.128497 -1.507559 -3.707549
  H 3.008561 -1.909235 -4.709475
  H 6.168814 -0.850508 -2.068475
  H 3.914688 1.438551 1.305401
  H 3.915361 -0.169280 1.951970
  H 2.381235 -0.640935 -1.544515
  H 5.085486 -0.095589 -0.185088
  H 5.092484 -2.362246 -3.535118
  H 5.092719 -0.770921 -4.173246
  H 2.633303 -0.539662 -3.679618
  H 2.633186 -2.188064 -3.018762
 19
 0.238092
  H 1.445417 -0.120379 0.575123
  C 2.514289 -0.015001 0.449046
  C 3.230373 0.791225 1.437651
  H 2.567369 1.167623 2.207202
  C 3.078714 -0.618241 -0.653341
  C 4.461235 -0.623932 -0.916114
  C 5.105953 -1.018781 -2.066244
  C 4.607480 -1.334885 -3.401444
  C 3.121557 -1.342307 -3.707104
  H 2.975541 -1.504376 -4.772295
  H 6.188489 -1.058870 -2.003886
  H 3.736661 1.633886 0.957874
  H 4.028944 0.210729 1.901846
  H 2.420198 -1.150136 -1.319874
  H 5.102081 -0.288281 -0.111604
  H 5.054645 -2.297938 -3.691725
  H 5.113949 -0.633304 -4.082743
  H 2.657708 -0.394397 -3.445639
  H 2.613101 -2.147318 -3.182165
 19
 2.117034
  H 1.527637 -0.471367 0.711688
  C 2.547365 -0.215946 0.458446
  C 3.156595 0.923729 1.145539
  H 2.492341 1.355342 1.886282
  C 3.158756 -0.926507 -0.543470
  C 4.543461 -0.888798 -0.828790
  C 5.162789 -1.118789 -2.028835
  C 4.591209 -1.182314 -3.374234
  C 3.087637 -1.155661 -3.563939
  H 2.857401 -1.112118 -4.625523
  H 6.243650 -1.186668 -2.018585
  H 3.447987 1.697774 0.434467
  H 4.092169 0.618082 1.622022
  H 2.574981 -1.677000 -1.059328
  H 5.192228 -0.651340 0.007542
  H 5.017317 -2.065063 -3.872366
  H 5.046846 -0.353672 -3.936233
  H 2.643107 -0.286307 -3.083564
  H 2.621977 -2.051104 -3.164060
 19
 5.813442
  H 1.682039 -0.715504 0.885002
  C 2.599440 -0.300795 0.490934
  C 3.046617 0.994164 1.011361
  H 2.332295 1.430249 1.700843
  C 3.221462 -0.951774 -0.538220
  C 4.610201 -0.994593 -0.817226
  C 5.198028 -1.205922 -2.032034
  C 4.585903 -1.161089 -3.363367
  C 3.081787 -1.011959 -3.489829
  H 2.814191 -0.910904 -4.539516
  H 6.269292 -1.360002 -2.054272
  H 3.258370 1.695827 0.206028
  H 4.002667 0.858215 1.525856
  H 2.690595 -1.797936 -0.969486
  H 5.270583 -0.838382 0.028820
  H 4.919668 -2.051686 -3.914332
  H 5.086507 -0.341320 -3.901248
  H 2.728270 -0.131758 -2.962774
  H 2.559426 -1.881389 -3.099953
 19
 14.321138
  H 1.839447 -0.840647 0.939322
  C 2.663970 -0.300216 0.493128
  C 2.890359 1.077982 0.957028
  H 2.109752 1.416593 1.629587
  C 3.341308 -0.878720 -0.534472
  C 4.705188 -1.145715 -0.828098
  C 5.227012 -1.372413 -2.066487
  C 4.579232 -1.204510 -3.373442
  C 3.100750 -0.870472 -3.421408
  H 2.795522 -0.722058 -4.453925
  H 6.266869 -1.666252 -2.125186
  H 2.981203 1.771229 0.122301
  H 3.850755 1.116592 1.480174
  H 2.844615 -1.791825 -0.899802
  H 5.387174 -1.136752 0.014594
  H 4.774934 -2.108810 -3.964932
  H 5.152727 -0.431071 -3.904187
  H 2.886823 0.042799 -2.867789
  H 2.494286 -1.673013 -3.011848
 19
 26.465829
  H 2.054181 -1.017412 0.930287
  C 2.767826 -0.337160 0.484759
  C 2.676880 1.075380 0.926173
  H 1.810028 1.244656 1.550537
  C 3.577814 -0.783296 -0.487613
  C 4.888668 -1.164606 -0.885782
  C 5.305914 -1.378265 -2.166641
  C 4.550997 -1.191326 -3.410776
  C 3.082788 -0.824287 -3.311746
  H 2.675148 -0.682868 -4.309821
  H 6.328339 -1.701022 -2.304054
  H 2.648459 1.755976 0.080755
  H 3.573449 1.322021 1.494469
  H 3.202441 -1.808728 -0.763471
  H 5.618011 -1.232875 -0.094457
  H 4.669040 -2.097415 -4.019287
  H 5.087698 -0.426891 -3.990801
  H 2.948151 0.102153 -2.754833
  H 2.504732 -1.607486 -2.828933
 19
 35.934716
  H 2.168714 -1.146581 0.841561
  C 2.846780 -0.397465 0.457415
  C 2.535244 1.008083 0.870324
  H 1.578323 1.064038 1.379684
  C 3.808878 -0.738656 -0.378980
  C 5.049704 -1.159686 -0.937743
  C 5.350778 -1.325830 -2.264337
  C 4.478692 -1.123607 -3.428510
  C 3.020750 -0.783448 -3.178109
  H 2.513070 -0.637868 -4.127761
  H 6.363283 -1.627068 -2.496443
  H 2.522252 1.677611 0.012791
  H 3.312861 1.363426 1.547176
  H 3.596676 -1.852570 -0.612809
  H 5.855531 -1.278187 -0.217489
  H 4.552080 -2.013663 -4.067542
  H 4.943628 -0.336481 -4.039743
  H 2.926716 0.133289 -2.600745
  H 2.507716 -1.583568 -2.650691
 19
 39.000775
  H 2.114503 -1.160321 0.703600
  C 2.840956 -0.413982 0.411719
  C 2.523178 0.983157 0.856255
  H 1.525224 1.038082 1.277077
  C 3.868675 -0.743594 -0.327038
  C 5.071234 -1.200516 -0.941691
  C 5.355158 -1.304610 -2.284285
  C 4.460834 -1.072242 -3.424496
  C 3.005380 -0.748185 -3.136453
  H 2.476641 -0.592452 -4.073324
  H 6.363906 -1.594221 -2.542675
  H 2.601105 1.682648 0.027423
  H 3.238886 1.295734 1.615459
  H 3.786057 -1.904018 -0.556568
  H 5.890838 -1.370707 -0.250044
  H 4.526487 -1.942847 -4.090611
  H 4.908221 -0.263423 -4.020033
  H 2.915626 0.159078 -2.544762
  H 2.510347 -1.561628 -2.612017
 19
 40.884191
  H 2.025765 -1.123758 0.661279
  C 2.801387 -0.412105 0.394938
  C 2.558360 0.991061 0.869834
  H 1.555190 1.088634 1.271943
  C 3.823691 -0.781211 -0.307197
  C 4.997313 -1.264058 -0.912432
  C 5.325217 -1.262430 -2.281850
  C 4.442439 -1.013563 -3.428573
  C 2.964201 -0.792204 -3.150630
  H 2.439844 -0.634574 -4.089644
  H 6.354697 -1.482241 -2.526239
  H 2.694572 1.701757 0.058205
  H 3.273963 1.242934 1.651437
  H 4.044144 -2.045083 -0.608321
  H 5.831588 -1.418541 -0.230781
  H 4.570568 -1.840689 -4.139616
  H 4.848404 -0.145590 -3.966519
  H 2.808163 0.083914 -2.527706
  H 2.516137 -1.656513 -2.667636
