19
 0
 C -3.64383172 -0.56894373 0.51178018
 C -2.17985645 -0.94601763 0.32032979
 C -2.04376452 -1.96761258 -0.80748681
 C -1.21583056 0.21438355 0.06747030
 C -1.71996430 1.62118634 -0.12937701
 O 0.00000000 0.00000000 0.00000000
 H -4.24193491 -1.45386649 0.75545179
 H -4.06715467 -0.12267640 -0.39463557
 H -3.76320813 0.14390191 1.33437990
 H -1.84181676 -1.41094196 1.25577161
 H -2.33680824 -1.53504598 -1.77037440
 H -2.67226600 -2.84459538 -0.61937058
 H -1.00926129 -2.31495022 -0.90347030
 H -2.79445509 1.72118498 0.01249614
 H -1.47717752 1.94591581 -1.14469213
 H -1.22521209 2.27416045 0.59552663
 O 2.70000000 0.00000000 0.00000000
 H 3.38474093 0.23913281 0.64258244
 H 3.18881206 -0.44606170 -0.70784698
