 19
 0.000000
  C 1.016031 0.121034 0.354025
  C 2.483664 0.117516 0.344924
  C 3.219076 0.592543 1.524574
  H 2.544776 0.909547 2.312952
  C 3.130630 -0.341888 -0.797411
  C 4.524113 -0.406476 -0.959553
  C 5.163517 -0.859468 -2.089791
  C 4.555614 -1.352697 -3.321572
  H 3.472494 -1.349274 -3.314633
  H 6.245204 -0.854575 -2.077115
  H 0.607289 0.496067 1.286047
  H 0.635821 -0.885853 0.173381
  H 0.635742 0.722293 -0.473544
  H 3.873405 1.424272 1.260887
  H 3.874189 -0.189373 1.910393
  H 2.504004 -0.670488 -1.614210
  H 5.147558 -0.077970 -0.140669
  H 4.920845 -2.362163 -3.523273
  H 4.921782 -0.762169 -4.164378
 19
 13.399754
  C 0.972728 0.147003 0.418587
  C 2.433306 0.150522 0.427042
  C 3.172281 0.621187 1.596105
  H 2.503180 0.939787 2.388684
  C 3.149911 -0.352075 -0.822872
  C 4.517651 -0.406370 -0.959622
  C 5.223466 -0.899102 -2.188812
  C 4.613546 -1.388884 -3.411612
  H 3.529140 -1.384161 -3.401418
  H 6.302202 -0.889806 -2.165196
  H 0.552543 0.520312 1.346486
  H 0.598835 -0.862195 0.232775
  H 0.598794 0.746490 -0.414234
  H 3.828021 1.451541 1.327768
  H 3.828844 -0.163028 1.977439
  H 2.526072 -0.680195 -1.638404
  H 5.138227 -0.078190 -0.141741
  H 4.977379 -2.399745 -3.613596
  H 4.978300 -0.797751 -4.255704
 19
 41.063249
  C 0.945421 0.157242 0.443363
  C 2.376717 0.181212 0.503348
  C 3.155275 0.630038 1.619617
  H 2.525248 0.958834 2.438580
  C 3.168883 -0.370343 -0.869054
  C 4.506860 -0.394155 -0.931401
  C 5.279725 -0.919588 -2.241185
  C 4.631779 -1.398601 -3.434622
  H 3.546394 -1.379350 -3.387586
  H 6.350989 -0.891491 -2.171569
  H 0.492403 0.524462 1.356434
  H 0.593071 -0.855342 0.236897
  H 0.593419 0.745520 -0.406445
  H 3.818365 1.443899 1.319796
  H 3.819150 -0.164484 1.965933
  H 2.511989 -0.687418 -1.656583
  H 5.156429 -0.074741 -0.136743
  H 4.971250 -2.417769 -3.645523
  H 4.971690 -0.808446 -4.291655
 19
 73.781243
  C 0.883528 0.177895 0.494645
  C 2.319737 0.213581 0.583799
  C 3.132392 0.654872 1.681682
  H 2.525974 0.989677 2.516470
  C 3.183205 -0.387115 -0.911382
  C 4.504864 -0.395766 -0.936036
  C 5.343973 -0.954530 -2.328534
  C 4.686467 -1.425463 -3.501300
  H 3.605152 -1.399959 -3.438571
  H 6.408229 -0.914411 -2.229081
  H 0.411743 0.542172 1.400684
  H 0.541061 -0.836396 0.282457
  H 0.541371 0.763459 -0.360451
  H 3.795119 1.460188 1.366199
  H 3.796149 -0.144576 2.010333
  H 2.504677 -0.692573 -1.670144
  H 5.167685 -0.085571 -0.164597
  H 5.017591 -2.443490 -3.717666
  H 5.018010 -0.840387 -4.361591
 19
 106.419915
  C 0.833313 0.202461 0.555413
  C 2.258038 0.248716 0.671152
  C 3.093790 0.682349 1.751244
  H 2.504402 1.025699 2.608377
  C 3.207699 -0.407916 -0.964217
  C 4.507276 -0.400662 -0.949537
  C 5.407086 -0.983883 -2.402392
  C 4.738183 -1.458552 -3.582603
  H 3.662330 -1.429569 -3.510574
  H 6.464458 -0.931150 -2.272199
  H 0.333762 0.567065 1.462961
  H 0.501989 -0.823171 0.333202
  H 0.502334 0.789666 -0.314424
  H 3.764633 1.487934 1.415776
  H 3.765186 -0.131020 2.064748
  H 2.498644 -0.707014 -1.707069
  H 5.190378 -0.092244 -0.183027
  H 5.062558 -2.481515 -3.802786
  H 5.062765 -0.872896 -4.450154
 19
 135.474294
  C 0.775741 0.233421 0.632490
  C 2.191652 0.287564 0.767527
  C 3.050496 0.710414 1.822442
  H 2.493329 1.058295 2.692794
  C 3.239934 -0.437533 -1.041494
  C 4.516613 -0.415491 -0.990637
  C 5.464181 -1.010740 -2.470047
  C 4.797653 -1.489563 -3.658448
  H 3.710532 -1.460824 -3.588408
  H 6.520967 -0.946320 -2.309997
  H 0.260878 0.589673 1.521261
  H 0.458517 -0.785627 0.404839
  H 0.458425 0.813091 -0.235962
  H 3.716184 1.500969 1.470536
  H 3.717733 -0.103855 2.112740
  H 2.506942 -0.726845 -1.759300
  H 5.206984 -0.110718 -0.232853
  H 5.121511 -2.516485 -3.877357
  H 5.122132 -0.902049 -4.528003
 19
 141.806328
  C 0.621547 0.343860 0.958387
  C 2.041396 0.364435 0.958990
  C 2.967614 0.821575 1.923233
  H 2.529218 1.235108 2.845191
  C 3.241192 -0.680798 -1.442700
  C 4.557359 -0.705774 -1.362577
  C 5.450328 -1.056422 -2.446313
  C 5.035475 -1.484384 -3.793420
  H 3.966210 -1.554518 -3.897571
  H 6.514181 -0.941349 -2.217305
  H 0.138010 0.751333 1.859779
  H 0.292604 -0.682797 0.786255
  H 0.270744 0.875013 0.071977
  H 3.610431 1.563212 1.449598
  H 3.647734 0.004948 2.161568
  H 2.405220 -0.908038 -2.065723
  H 5.105914 -0.394064 -0.479575
  H 5.480890 -2.455943 -4.016971
  H 5.425627 -0.803730 -4.548061
 19
 146.396949
  C 0.546840 0.417858 1.098696
  C 1.971939 0.407094 1.050740
  C 2.890077 0.846214 2.051286
  H 2.438480 1.232655 2.969750
  C 3.286293 -0.684489 -1.609171
  C 4.604784 -0.715081 -1.513679
  C 5.517747 -1.087023 -2.545911
  C 5.140481 -1.555586 -3.878473
  H 4.075153 -1.673542 -3.999371
  H 6.567008 -0.932604 -2.347412
  H 0.107472 0.808244 2.021221
  H 0.191117 -0.598396 0.909096
  H 0.180200 0.980360 0.236578
  H 3.540883 1.601316 1.603393
  H 3.569369 0.022211 2.280667
  H 2.442092 -0.961955 -2.193137
  H 5.069910 -0.363382 -0.599383
  H 5.639297 -2.503737 -4.071660
  H 5.520595 -0.877257 -4.640404
 19
 149.701282
  C 0.475315 0.494123 1.216322
  C 1.901094 0.449908 1.146070
  C 2.822021 0.871776 2.160297
  H 2.367304 1.258912 3.082129
  C 3.340789 -0.737036 -1.738880
  C 4.658288 -0.777753 -1.609861
  C 5.578567 -1.120770 -2.626167
  C 5.217599 -1.589574 -3.952587
  H 4.151604 -1.779324 -4.063863
  H 6.618450 -0.904381 -2.436843
  H 0.059172 0.888165 2.152523
  H 0.094587 -0.511474 1.022121
  H 0.109781 1.072757 0.363868
  H 3.484395 1.622000 1.718741
  H 3.490184 0.036160 2.387388
  H 2.498477 -1.061534 -2.301402
  H 5.085451 -0.395339 -0.694013
  H 5.786020 -2.503193 -4.158172
  H 5.546740 -0.879360 -4.720348
 19
 150.671453
  C 0.391787 0.555784 1.347617
  C 1.819500 0.503958 1.265497
  C 2.739481 0.924772 2.272664
  H 2.284644 1.318124 3.201133
  C 3.411077 -0.773354 -1.830731
  C 4.732142 -0.841303 -1.689781
  C 5.637662 -1.169946 -2.707263
  C 5.285299 -1.615836 -4.051363
  H 4.223901 -1.828077 -4.166860
  H 6.676837 -0.941334 -2.528399
  H -0.016839 0.953283 2.287192
  H 0.003571 -0.446756 1.155706
  H 0.025301 1.134820 0.496798
  H 3.400171 1.669977 1.827426
  H 3.406310 0.090966 2.498340
  H 2.611044 -1.138935 -2.428308
  H 5.154458 -0.469992 -0.769356
  H 5.878558 -2.508344 -4.267381
  H 5.594413 -0.892537 -4.808768
 19
 150.430770
  C 0.305458 0.613631 1.451951
  C 1.724383 0.565673 1.398946
  C 2.664063 0.977213 2.390393
  H 2.231540 1.372445 3.314130
  C 3.488806 -0.804037 -1.893187
  C 4.816800 -0.904331 -1.750239
  C 5.694865 -1.211923 -2.784855
  C 5.321888 -1.636260 -4.127756
  H 4.267584 -1.872096 -4.221905
  H 6.745815 -0.964674 -2.630540
  H -0.116078 1.007191 2.371779
  H -0.081294 -0.393555 1.251967
  H -0.047627 1.193795 0.588967
  H 3.335568 1.722282 1.931047
  H 3.333768 0.129901 2.610204
  H 2.750330 -1.228971 -2.532195
  H 5.256901 -0.543004 -0.832896
  H 5.933832 -2.514783 -4.380810
  H 5.594226 -0.877458 -4.877208
 19
 149.283812
  C 0.223888 0.684255 1.533565
  C 1.637734 0.632552 1.537113
  C 2.584488 1.032092 2.517018
  H 2.162495 1.443001 3.443292
  C 3.584764 -0.866456 -1.916976
  C 4.917339 -1.011499 -1.793473
  C 5.761436 -1.251334 -2.873038
  C 5.353879 -1.648074 -4.221466
  H 4.317198 -1.959825 -4.281778
  H 6.797934 -0.953280 -2.764225
  H -0.241175 1.091712 2.439918
  H -0.157580 -0.318826 1.323257
  H -0.091696 1.250932 0.652601
  H 3.262302 1.756854 2.055930
  H 3.236462 0.182868 2.739114
  H 2.905010 -1.359015 -2.584479
  H 5.385383 -0.663200 -0.881265
  H 6.010438 -2.458511 -4.546247
  H 5.526165 -0.837405 -4.933806
 19
 148.040308
  C 0.270628 0.742589 1.381118
  C 1.662529 0.634332 1.557084
  C 2.567096 0.980853 2.578574
  H 2.122758 1.418827 3.479708
  C 3.713400 -0.937574 -1.769888
  C 5.042193 -1.112026 -1.678921
  C 5.733877 -1.172691 -2.890293
  C 5.222692 -1.645913 -4.185566
  H 4.355309 -2.294209 -4.081280
  H 6.697501 -0.677518 -2.922213
  H -0.285219 1.182453 2.219681
  H -0.128568 -0.245900 1.133141
  H 0.087710 1.310532 0.462462
  H 3.311112 1.663915 2.152437
  H 3.166052 0.099735 2.835398
  H 3.063528 -1.389052 -2.502128
  H 5.585521 -0.815483 -0.793499
  H 6.026462 -2.184587 -4.694179
  H 4.961885 -0.811442 -4.836582
