 23
 0.000000
  C 0.958356 0.134987 0.427021
  C 2.421524 0.122552 0.373208
  H 3.011200 0.463911 1.208947
  C 3.029240 -0.340439 -0.774063
  C 4.408849 -0.412698 -0.956093
  C 5.103310 -0.863139 -2.079063
  C 4.608696 -1.379510 -3.383185
  C 3.123520 -1.496584 -3.697809
  C 2.940307 -2.053578 -5.107687
  O 6.417988 -0.864768 -2.058634
  H 0.563309 0.514549 1.363629
  H 0.583660 -0.876594 0.259326
  H 0.563178 0.733099 -0.396615
  H 2.377204 -0.664017 -1.566926
  H 5.027169 -0.079849 -0.129070
  H 5.073295 -2.364539 -3.509087
  H 5.081597 -0.753501 -4.149029
  H 2.646316 -0.517410 -3.652107
  H 2.637999 -2.175514 -2.996459
  H 3.397445 -1.400531 -5.847369
  H 1.883295 -2.142129 -5.344694
  H 3.389433 -3.039762 -5.198692
  H 6.820867 -0.535257 -1.233933
 23
 2.644316
  C 0.987169 0.072395 0.353041
  C 2.441903 0.196657 0.345265
  H 2.986975 0.509392 1.217221
  C 3.080150 -0.228129 -0.795628
  C 4.444085 -0.352150 -0.929577
  C 5.090224 -0.861801 -2.046515
  C 4.570432 -1.381633 -3.338333
  C 3.082891 -1.468401 -3.664407
  C 2.902359 -2.051865 -5.065579
  O 6.416908 -0.910592 -2.045855
  H 0.520105 0.257740 1.307413
  H 0.815236 -0.950915 -0.012118
  H 0.538262 0.714282 -0.400350
  H 2.454309 -0.533372 -1.614637
  H 5.060544 -0.040381 -0.102441
  H 5.011980 -2.381164 -3.449859
  H 5.064563 -0.783140 -4.115563
  H 2.628387 -0.477806 -3.650054
  H 2.573320 -2.122387 -2.956548
  H 3.382861 -1.426138 -5.813860
  H 1.845986 -2.120124 -5.312544
  H 3.328242 -3.050242 -5.131047
  H 6.844206 -0.600112 -1.223757
 23
 7.960816
  C 1.026873 -0.025768 0.235922
  C 2.451503 0.252676 0.355051
  H 2.918864 0.539721 1.276391
  C 3.153834 -0.094921 -0.771231
  C 4.506500 -0.278877 -0.892559
  C 5.075900 -0.851942 -2.014649
  C 4.517078 -1.374656 -3.284210
  C 3.031304 -1.436046 -3.629198
  C 2.860215 -2.055791 -5.015823
  O 6.399832 -0.960185 -2.055286
  H 0.476307 -0.035243 1.159781
  H 1.051610 -0.984673 -0.290399
  H 0.547435 0.668913 -0.460306
  H 2.557711 -0.360268 -1.629784
  H 5.154984 -0.011191 -0.071597
  H 4.929941 -2.388529 -3.373378
  H 5.028424 -0.806951 -4.073366
  H 2.594821 -0.433690 -3.656109
  H 2.493546 -2.062485 -2.911616
  H 3.366187 -1.462015 -5.773880
  H 1.806743 -2.108236 -5.277647
  H 3.265241 -3.064970 -5.046050
  H 6.858979 -0.675571 -1.253683
 23
 15.503781
  C 1.093859 -0.151442 0.052173
  C 2.455143 0.289304 0.320048
  H 2.831695 0.523608 1.304798
  C 3.232376 0.056377 -0.777264
  C 4.569725 -0.206168 -0.855643
  C 5.072649 -0.838184 -1.979320
  C 4.473964 -1.362790 -3.232535
  C 2.982577 -1.386914 -3.562861
  C 2.782017 -2.048926 -4.920095
  O 6.388450 -1.002633 -2.039627
  H 0.484776 -0.358415 0.924162
  H 1.302405 -1.030376 -0.585695
  H 0.570741 0.561074 -0.586285
  H 2.690494 -0.130225 -1.688270
  H 5.230021 -0.011091 -0.026336
  H 4.851184 -2.392891 -3.302267
  H 4.996744 -0.832544 -4.041320
  H 2.576545 -0.381402 -3.628100
  H 2.435231 -1.966851 -2.823996
  H 3.299172 -1.499400 -5.701448
  H 1.725706 -2.077291 -5.171476
  H 3.154815 -3.069780 -4.916428
  H 6.876334 -0.737761 -1.241534
 23
 22.364364
  C 1.218143 -0.357627 -0.024951
  C 2.462534 0.372472 0.247333
  H 2.821424 0.565494 1.237865
  C 3.237879 0.311541 -0.879958
  C 4.572843 -0.017005 -0.909451
  C 5.035073 -0.821130 -1.942096
  C 4.428846 -1.381843 -3.183381
  C 2.956756 -1.290238 -3.561356
  C 2.734098 -2.024830 -4.875948
  O 6.318272 -1.164240 -1.911638
  H 0.725021 -0.761199 0.849399
  H 1.607762 -1.132711 -0.715443
  H 0.511401 0.250715 -0.592510
  H 2.710804 0.144639 -1.801931
  H 5.220918 0.169311 -0.059425
  H 4.711765 -2.436049 -3.172387
  H 5.016997 -0.954754 -4.004812
  H 2.648988 -0.257539 -3.705877
  H 2.333260 -1.765127 -2.806765
  H 3.321368 -1.585373 -5.670657
  H 1.692457 -1.973254 -5.162021
  H 3.007025 -3.068841 -4.788629
  H 6.782029 -0.950682 -1.085916
 23
 28.584507
  C 1.404432 -0.571842 -0.053825
  C 2.485158 0.399040 0.175581
  H 2.843202 0.656135 1.156105
  C 3.190094 0.514922 -0.993004
  C 4.517799 0.121330 -0.982710
  C 4.961100 -0.830263 -1.892496
  C 4.379839 -1.419207 -3.128760
  C 2.952187 -1.179571 -3.600387
  C 2.697508 -1.999287 -4.862657
  O 6.184200 -1.323252 -1.734134
  H 1.032261 -1.042462 0.848865
  H 1.930869 -1.285855 -0.719197
  H 0.577580 -0.143207 -0.612680
  H 2.642327 0.427610 -1.916438
  H 5.122835 0.293491 -0.092928
  H 4.541647 -2.515592 -3.032682
  H 5.058675 -1.112176 -3.935322
  H 2.792665 -0.129914 -3.847265
  H 2.231833 -1.497937 -2.845713
  H 3.378886 -1.712770 -5.658536
  H 1.683476 -1.841129 -5.215703
  H 2.825832 -3.059289 -4.670483
  H 6.660601 -0.996137 -0.950494
 23
 35.523904
  C 1.622536 -0.749327 -0.038356
  C 2.521903 0.395407 0.116051
  H 2.920685 0.682510 1.073135
  C 3.125513 0.639467 -1.087769
  C 4.466572 0.276694 -1.079905
  C 4.857068 -0.823868 -1.835408
  C 4.285993 -1.470794 -3.053602
  C 2.942418 -1.093016 -3.669543
  C 2.693320 -1.959243 -4.901059
  O 5.995271 -1.429377 -1.519786
  H 1.354179 -1.207419 0.907536
  H 2.255876 -1.430339 -0.666746
  H 0.719440 -0.514580 -0.599495
  H 2.545492 0.520937 -1.988862
  H 5.066110 0.520671 -0.212134
  H 4.303436 -2.550082 -2.861756
  H 5.055169 -1.317605 -3.823538
  H 2.945099 -0.048475 -3.985099
  H 2.122017 -1.268253 -2.973413
  H 3.471189 -1.813569 -5.646253
  H 1.741143 -1.702323 -5.355717
  H 2.668018 -3.013502 -4.636251
  H 6.485753 -1.025525 -0.781516
 23
 44.045957
  C 1.813272 -0.872692 -0.094687
  C 2.569347 0.372003 0.051025
  H 3.012739 0.641854 1.000505
  C 3.071100 0.748747 -1.167761
  C 4.421633 0.371791 -1.143734
  C 4.763281 -0.820482 -1.776912
  C 4.205563 -1.508513 -2.976889
  C 2.931832 -1.057049 -3.677865
  C 2.688012 -1.939315 -4.903981
  O 5.852482 -1.465249 -1.366420
  H 1.588493 -1.343637 0.851561
  H 2.546298 -1.478528 -0.697926
  H 0.899459 -0.767287 -0.682045
  H 2.474647 0.642734 -2.055995
  H 5.026380 0.664017 -0.293101
  H 4.128464 -2.571753 -2.723634
  H 5.016122 -1.462015 -3.712665
  H 3.028502 -0.024182 -4.014624
  H 2.067026 -1.153826 -3.025872
  H 3.514028 -1.867163 -5.610229
  H 1.780364 -1.630246 -5.416899
  H 2.575524 -2.981830 -4.616587
  H 6.338683 -1.033347 -0.642319
 23
 53.791779
  C 1.986681 -0.972598 -0.180099
  C 2.621726 0.334954 -0.022036
  H 3.091732 0.587334 0.922260
  C 3.021105 0.855839 -1.229813
  C 4.370174 0.424445 -1.169829
  C 4.676644 -0.830598 -1.710267
  C 4.133428 -1.547224 -2.901753
  C 2.920392 -1.044988 -3.669300
  C 2.688536 -1.932440 -4.890342
  O 5.752225 -1.471612 -1.254047
  H 1.790278 -1.472626 0.758547
  H 2.809819 -1.479689 -0.765749
  H 1.091261 -0.962207 -0.792481
  H 2.416500 0.795167 -2.115346
  H 4.989164 0.758063 -0.346182
  H 3.985525 -2.595001 -2.613742
  H 4.975128 -1.576540 -3.606772
  H 3.089180 -0.021600 -4.015482
  H 2.019720 -1.084228 -3.055092
  H 3.549231 -1.913647 -5.558588
  H 1.820216 -1.585946 -5.450586
  H 2.510335 -2.961248 -4.593564
  H 6.230131 -1.017279 -0.539261
 23
 63.797159
  C 2.138899 -1.048363 -0.236801
  C 2.680022 0.313239 -0.090282
  H 3.122702 0.602018 0.857108
  C 2.973223 0.941395 -1.288641
  C 4.308895 0.434064 -1.167321
  C 4.601118 -0.864569 -1.648913
  C 4.087703 -1.585086 -2.852212
  C 2.917749 -1.047854 -3.663176
  C 2.701709 -1.929783 -4.893279
  O 5.676412 -1.483776 -1.177231
  H 1.979036 -1.560396 0.703015
  H 3.020181 -1.455033 -0.807703
  H 1.250230 -1.111982 -0.855608
  H 2.367056 0.901058 -2.171604
  H 4.959500 0.818369 -0.392393
  H 3.897465 -2.624630 -2.567367
  H 4.954618 -1.645352 -3.524114
  H 3.130492 -0.031649 -4.000943
  H 1.996288 -1.057093 -3.078984
  H 3.583891 -1.936939 -5.529940
  H 1.866195 -1.557865 -5.482164
  H 2.480753 -2.956957 -4.602685
  H 6.149342 -1.020389 -0.462892
 23
 72.638076
  C 2.274335 -1.105091 -0.256973
  C 2.750796 0.314599 -0.139845
  H 3.124077 0.664033 0.811986
  C 2.926710 1.001566 -1.346080
  C 4.232457 0.428004 -1.136065
  C 4.532649 -0.918586 -1.598155
  C 4.068591 -1.619295 -2.835297
  C 2.929682 -1.058060 -3.676440
  C 2.727324 -1.934425 -4.912944
  O 5.610743 -1.503046 -1.121399
  H 2.161303 -1.608373 0.695433
  H 3.178742 -1.435742 -0.830557
  H 1.368112 -1.218248 -0.838278
  H 2.320244 0.955871 -2.223747
  H 4.929663 0.857909 -0.430592
  H 3.857796 -2.659858 -2.578443
  H 4.963595 -1.674086 -3.472598
  H 3.170013 -0.049207 -4.005531
  H 1.994354 -1.047727 -3.113039
  H 3.629988 -1.958239 -5.529570
  H 1.915053 -1.542991 -5.521918
  H 2.477745 -2.955145 -4.631272
  H 6.082917 -1.031336 -0.408250
 23
 76.153067
  C 2.402723 -1.137089 -0.231125
  C 2.822862 0.337059 -0.169828
  H 3.109067 0.758895 0.780785
  C 2.877599 1.043853 -1.407046
  C 4.155339 0.428139 -1.116348
  C 4.466156 -0.988397 -1.558522
  C 4.068753 -1.655653 -2.841523
  C 2.955506 -1.072636 -3.702762
  C 2.769993 -1.933843 -4.951400
  O 5.540677 -1.531391 -1.067053
  H 2.355050 -1.614978 0.742062
  H 3.301551 -1.457043 -0.840893
  H 1.474459 -1.304438 -0.763124
  H 2.255831 0.957245 -2.267225
  H 4.913587 0.905338 -0.514976
  H 3.851740 -2.703638 -2.629258
  H 4.992296 -1.681382 -3.438779
  H 3.212113 -0.060241 -4.013679
  H 2.011541 -1.059733 -3.156741
  H 3.685003 -1.960135 -5.546629
  H 1.978049 -1.525885 -5.573169
  H 2.501830 -2.956991 -4.687703
  H 5.993731 -1.053055 -0.343073
 23
 78.844798
  C 2.486617 -1.130365 -0.224465
  C 2.859185 0.353237 -0.185222
  H 3.057027 0.815101 0.770963
  C 2.844865 1.065391 -1.431669
  C 4.118150 0.445789 -1.112974
  C 4.441627 -1.029293 -1.534538
  C 4.083708 -1.678492 -2.843424
  C 2.982738 -1.094571 -3.715041
  C 2.820913 -1.948178 -4.977131
  O 5.521076 -1.553865 -1.035570
  H 2.461524 -1.609081 0.746217
  H 3.425218 -1.457739 -0.850845
  H 1.581877 -1.356997 -0.778581
  H 2.208469 0.928313 -2.274980
  H 4.924795 0.958948 -0.615399
  H 3.872725 -2.731253 -2.652385
  H 5.022378 -1.678764 -3.420718
  H 3.237019 -0.079585 -4.011674
  H 2.029090 -1.091687 -3.181601
  H 3.741193 -1.963704 -5.555465
  H 2.030211 -1.536427 -5.612367
  H 2.556952 -2.969979 -4.727579
  H 5.961853 -1.062599 -0.311132
 23
 80.147500
  C 2.545340 -1.118509 -0.204223
  C 2.894708 0.355422 -0.197618
  H 2.998286 0.864969 0.749289
  C 2.814505 1.038192 -1.469144
  C 4.099440 0.444154 -1.150405
  C 4.421598 -1.070293 -1.508290
  C 4.114725 -1.704355 -2.845842
  C 3.014895 -1.119352 -3.723318
  C 2.885388 -1.944332 -5.001046
  O 5.523007 -1.569675 -0.997915
  H 2.554441 -1.605080 0.764005
  H 3.522304 -1.468875 -0.846338
  H 1.665543 -1.394869 -0.774905
  H 2.147384 0.897289 -2.286649
  H 4.943351 1.016914 -0.796871
  H 3.914874 -2.764737 -2.677964
  H 5.061250 -1.673614 -3.399214
  H 3.259654 -0.091594 -3.995687
  H 2.053077 -1.137630 -3.204545
  H 3.817323 -1.936326 -5.567080
  H 2.103080 -1.534553 -5.633164
  H 2.630947 -2.979686 -4.773325
  H 5.952358 -1.041290 -0.295538
