 29
 0.000000
  H 1.468827 0.163260 0.462174
  C 2.547735 0.146186 0.418152
  C 3.305028 0.616250 1.585089
  C 2.451416 1.087713 2.758021
  C 3.323254 1.555644 3.919212
  C 3.108725 -0.324529 -0.753288
  C 4.484044 -0.419763 -0.991675
  C 5.142155 -0.877564 -2.134292
  C 4.610275 -1.393538 -3.422286
  C 3.114379 -1.500015 -3.689663
  C 2.875514 -2.060790 -5.089545
  O 6.457245 -0.882305 -2.146628
  H 3.965396 1.435866 1.276889
  H 3.966520 -0.187565 1.930182
  H 1.809175 0.275067 3.102146
  H 1.808077 1.911482 2.443607
  H 3.958396 0.749591 4.279547
  H 2.702401 1.888410 4.747195
  H 3.957216 2.387365 3.620380
  H 2.425115 -0.634560 -1.524364
  H 5.122266 -0.093026 -0.177231
  H 5.060746 -2.383858 -3.558738
  H 5.061520 -0.771953 -4.204772
  H 2.646066 -0.516991 -3.630388
  H 2.645309 -2.169785 -2.968182
  H 3.310624 -1.415156 -5.848670
  H 1.809258 -2.138804 -5.285494
  H 3.309923 -3.052284 -5.192729
  H 6.856471 -0.551072 -1.318866
 29
 2.313818
  H 1.485308 0.320610 0.446758
  C 2.563203 0.248860 0.391500
  C 3.315785 0.609388 1.597567
  C 2.448263 1.101357 2.752103
  C 3.294251 1.446783 3.973111
  C 3.101564 -0.183526 -0.802415
  C 4.474593 -0.335407 -1.027129
  C 5.139359 -0.832791 -2.147245
  C 4.609532 -1.411265 -3.407300
  C 3.113452 -1.516704 -3.670522
  C 2.871113 -2.153846 -5.036803
  O 6.456481 -0.899274 -2.116602
  H 4.060992 1.375726 1.353550
  H 3.896701 -0.259150 1.933297
  H 1.723813 0.331858 3.025100
  H 1.890279 1.986906 2.442062
  H 3.840880 0.575674 4.327048
  H 2.662375 1.798172 4.784759
  H 4.009731 2.232438 3.741279
  H 2.410923 -0.414100 -1.594126
  H 5.132630 -0.053775 -0.216190
  H 5.054166 -2.410956 -3.492590
  H 5.074253 -0.840125 -4.219917
  H 2.657646 -0.526214 -3.668551
  H 2.636327 -2.137399 -2.911402
  H 3.319970 -1.560224 -5.829663
  H 1.804939 -2.227333 -5.234655
  H 3.290866 -3.156021 -5.080190
  H 6.940995 -0.230686 -1.600228
 29
 5.528206
  H 1.577967 0.808177 0.247928
  C 2.629005 0.552249 0.247743
  C 3.313006 0.598822 1.544084
  C 2.435636 1.086028 2.692942
  C 3.202697 1.098817 4.010343
  C 3.191976 0.196573 -0.958543
  C 4.539368 -0.137949 -1.117676
  C 5.186034 -0.660336 -2.235659
  C 4.618470 -1.356668 -3.412223
  C 3.115896 -1.548994 -3.564189
  C 2.822407 -2.436776 -4.770652
  O 6.512331 -0.752577 -2.199054
  H 4.205309 1.231604 1.474573
  H 3.695511 -0.400933 1.786435
  H 1.562833 0.438292 2.792342
  H 2.076459 2.094070 2.477826
  H 3.548923 0.100548 4.268654
  H 2.565215 1.451599 4.817157
  H 4.065463 1.758612 3.951807
  H 2.551975 0.210299 -1.824114
  H 5.179028 -0.050792 -0.246810
  H 5.111544 -2.338283 -3.435103
  H 5.012931 -0.846481 -4.300483
  H 2.623289 -0.590047 -3.720328
  H 2.703283 -2.020598 -2.671837
  H 3.207787 -1.991825 -5.684801
  H 1.750496 -2.571403 -4.888207
  H 3.273342 -3.418998 -4.651822
  H 6.967231 0.074828 -1.963809
 29
 10.197044
  H 1.515541 0.644278 0.316308
  C 2.580281 0.454557 0.294483
  C 3.292987 0.573840 1.568073
  C 2.435016 1.084902 2.720899
  C 3.235032 1.166410 4.016172
  C 3.132692 0.096493 -0.915404
  C 4.497478 -0.158715 -1.100685
  C 5.159712 -0.709504 -2.189233
  C 4.630214 -1.408255 -3.376662
  C 3.131691 -1.525923 -3.613775
  C 2.860041 -2.370559 -4.856182
  O 6.497414 -0.794097 -2.074520
  H 4.171649 1.218596 1.447681
  H 3.707445 -0.406352 1.839751
  H 1.579658 0.423141 2.868694
  H 2.047124 2.075660 2.476438
  H 3.612154 0.187515 4.303203
  H 2.609877 1.534975 4.825388
  H 4.079594 1.843369 3.910021
  H 2.469568 0.032888 -1.761779
  H 5.174187 0.062044 -0.284222
  H 5.069766 -2.415493 -3.344412
  H 5.100550 -0.951698 -4.256791
  H 2.696126 -0.538396 -3.768466
  H 2.650137 -1.998780 -2.756982
  H 3.313592 -1.925036 -5.738398
  H 1.790477 -2.449713 -5.032275
  H 3.256162 -3.376458 -4.738831
  H 7.001163 0.003923 -2.293636
 29
 8.246228
  H 1.470243 0.433685 0.435359
  C 2.544565 0.312489 0.393081
  C 3.279860 0.566061 1.633809
  C 2.426686 1.130979 2.764864
  C 3.251303 1.347946 4.028689
  C 3.086751 -0.100922 -0.803717
  C 4.460099 -0.269490 -1.011962
  C 5.139140 -0.768090 -2.117648
  C 4.640278 -1.373037 -3.371103
  C 3.147750 -1.471318 -3.656387
  C 2.912991 -2.228781 -4.961284
  O 6.466794 -0.788347 -1.964799
  H 4.129418 1.231760 1.440564
  H 3.743189 -0.371078 1.971481
  H 1.604047 0.448477 2.986023
  H 1.990984 2.082240 2.453336
  H 3.676647 0.411273 4.381753
  H 2.629314 1.753715 4.822334
  H 4.063381 2.048356 3.847824
  H 2.404830 -0.282398 -1.617570
  H 5.136567 0.080200 -0.240111
  H 5.067170 -2.386656 -3.385912
  H 5.128577 -0.871568 -4.215799
  H 2.716434 -0.474447 -3.755639
  H 2.643748 -2.004240 -2.850148
  H 3.388867 -1.723523 -5.798604
  H 1.848951 -2.296661 -5.171717
  H 3.308258 -3.240183 -4.901908
  H 6.978065 -0.279842 -2.614369
 29
 9.509035
  H 1.517252 0.895283 0.211707
  C 2.576513 0.678956 0.183398
  C 3.266796 0.574052 1.472100
  C 2.417070 0.987226 2.669656
  C 3.186400 0.833780 3.976797
  C 3.155554 0.469466 -1.042372
  C 4.518929 0.184590 -1.216564
  C 5.194970 -0.511488 -2.210897
  C 4.684229 -1.407524 -3.269867
  C 3.174868 -1.491091 -3.467746
  C 2.832307 -2.522192 -4.538848
  O 6.513860 -0.480671 -2.010471
  H 4.193514 1.158529 1.443382
  H 3.599930 -0.461679 1.618014
  H 1.512530 0.377505 2.711632
  H 2.108313 2.028111 2.555206
  H 3.487939 -0.199579 4.131880
  H 2.567297 1.132571 4.818882
  H 4.078224 1.456199 3.977842
  H 2.533654 0.561855 -1.919248
  H 5.276263 0.593513 -0.554004
  H 5.079078 -2.406055 -3.041685
  H 5.144319 -1.124581 -4.224170
  H 2.785513 -0.522002 -3.779300
  H 2.691262 -1.774779 -2.532240
  H 3.285792 -2.260882 -5.492187
  H 1.756408 -2.575436 -4.682296
  H 3.182185 -3.511482 -4.253388
  H 7.073282 -0.287641 -2.780359
 29
 20.920379
  H 1.562675 1.252797 0.104660
  C 2.595805 0.934362 0.062020
  C 3.234449 0.558349 1.327712
  C 2.413212 0.917103 2.563154
  C 3.134745 0.512807 3.844612
  C 3.199459 0.858073 -1.165227
  C 4.521340 0.439140 -1.353292
  C 5.192763 -0.337775 -2.284814
  C 4.708349 -1.377340 -3.211664
  C 3.187260 -1.471478 -3.325311
  C 2.779278 -2.677681 -4.165469
  O 6.517126 -0.207763 -2.068251
  H 4.222371 1.027758 1.385938
  H 3.427498 -0.522497 1.330271
  H 1.444678 0.411238 2.524160
  H 2.225724 1.992085 2.578824
  H 3.318491 -0.558882 3.866287
  H 2.535672 0.768869 4.714667
  H 4.089089 1.026625 3.931739
  H 2.651561 1.188253 -2.034080
  H 5.418734 0.747336 -0.784379
  H 5.123272 -2.340165 -2.883790
  H 5.128307 -1.188362 -4.208585
  H 2.795666 -0.565066 -3.788441
  H 2.748488 -1.561919 -2.329272
  H 3.185025 -2.606669 -5.172662
  H 1.696802 -2.738444 -4.242084
  H 3.137684 -3.602328 -3.719128
  H 7.089545 0.095164 -2.790617
 29
 45.212737
  H 1.528999 1.438984 0.226933
  C 2.534371 1.056967 0.119502
  C 3.221651 0.620923 1.341795
  C 2.465453 0.951267 2.626258
  C 3.214888 0.450229 3.855878
  C 3.060760 0.967560 -1.142270
  C 4.324246 0.459352 -1.425360
  C 5.041001 -0.338329 -2.262484
  C 4.704523 -1.434930 -3.188245
  C 3.197117 -1.586153 -3.396566
  C 2.884030 -2.770598 -4.303113
  O 6.359859 -0.122252 -1.926437
  H 4.230913 1.041945 1.383840
  H 3.360137 -0.466591 1.287931
  H 1.469559 0.505213 2.600729
  H 2.341249 2.033408 2.703860
  H 3.339311 -0.629682 3.820790
  H 2.666671 0.696023 4.761904
  H 4.198810 0.908303 3.923181
  H 2.490512 1.373344 -1.969913
  H 5.468115 0.721692 -0.968610
  H 5.123881 -2.367938 -2.800045
  H 5.182977 -1.237424 -4.153078
  H 2.797526 -0.675750 -3.844579
  H 2.705295 -1.726179 -2.432933
  H 3.345307 -2.645211 -5.280076
  H 1.810963 -2.866126 -4.446795
  H 3.249632 -3.698199 -3.868519
  H 6.965855 0.188638 -2.625794
 29
 60.445776
  H 1.533689 1.565666 0.269991
  C 2.512716 1.132803 0.126864
  C 3.202157 0.616615 1.325056
  C 2.488919 0.951279 2.632712
  C 3.230135 0.371746 3.832265
  C 3.009702 1.062681 -1.147137
  C 4.221921 0.503110 -1.488433
  C 4.947519 -0.275794 -2.261992
  C 4.679477 -1.415508 -3.167103
  C 3.184711 -1.628638 -3.404362
  C 2.939830 -2.852932 -4.278205
  O 6.314996 -0.005978 -1.887221
  H 4.228747 0.990535 1.365010
  H 3.286134 -0.473542 1.233967
  H 1.472098 0.554015 2.611954
  H 2.418939 2.035372 2.744222
  H 3.296703 -0.711407 3.759425
  H 2.709953 0.615676 4.755617
  H 4.237897 0.775636 3.896762
  H 2.452193 1.547592 -1.942080
  H 5.676409 0.709571 -1.066396
  H 5.121585 -2.321960 -2.742462
  H 5.175116 -1.230828 -4.125236
  H 2.762240 -0.748148 -3.890470
  H 2.677725 -1.759702 -2.447034
  H 3.419545 -2.740251 -5.248370
  H 1.874857 -2.995658 -4.443195
  H 3.331246 -3.750767 -3.805126
  H 6.907460 0.324743 -2.598407
 29
 53.916626
  H 1.493649 1.562072 0.316476
  C 2.469179 1.130139 0.152695
  C 3.192274 0.620231 1.340284
  C 2.505542 0.958753 2.660855
  C 3.275675 0.391730 3.848289
  C 2.936717 1.049171 -1.131052
  C 4.120229 0.477971 -1.499885
  C 4.872394 -0.264790 -2.242115
  C 4.663937 -1.402760 -3.165324
  C 3.182464 -1.652156 -3.443650
  C 2.994456 -2.873448 -4.335535
  O 6.275384 0.031370 -1.838142
  H 4.216453 1.002482 1.356330
  H 3.280632 -0.470095 1.253886
  H 1.490976 0.554738 2.663894
  H 2.430838 2.043286 2.766897
  H 3.347147 -0.691617 3.780670
  H 2.774123 0.638903 4.780964
  H 4.282247 0.801891 3.887972
  H 2.362704 1.531325 -1.916399
  H 5.815861 0.665802 -1.132258
  H 5.116560 -2.301531 -2.736431
  H 5.178674 -1.195023 -4.107679
  H 2.749201 -0.778036 -3.931592
  H 2.654316 -1.806194 -2.501466
  H 3.495757 -2.736717 -5.291286
  H 1.938734 -3.043328 -4.530576
  H 3.399291 -3.765046 -3.861982
  H 6.860600 0.357155 -2.559753
 29
 44.798813
  H 1.566065 1.740545 0.271995
  C 2.507253 1.244606 0.093549
  C 3.163600 0.586219 1.247305
  C 2.482979 0.890043 2.579542
  C 3.189341 0.193706 3.737135
  C 3.009697 1.226997 -1.184173
  C 4.163372 0.621620 -1.566626
  C 4.914054 -0.166909 -2.264860
  C 4.679766 -1.381528 -3.083226
  C 3.186369 -1.645224 -3.277090
  C 2.950600 -2.923489 -4.071806
  O 6.378202 0.133042 -1.988681
  H 4.212562 0.889786 1.303526
  H 3.169264 -0.499039 1.087504
  H 1.440573 0.566092 2.541726
  H 2.488319 1.967948 2.755721
  H 3.185495 -0.885004 3.601730
  H 2.691599 0.417665 4.677598
  H 4.221990 0.528767 3.813473
  H 2.491240 1.803021 -1.943243
  H 6.150445 0.788092 -1.285875
  H 5.152690 -2.242282 -2.602844
  H 5.147515 -1.249846 -4.061819
  H 2.735320 -0.805209 -3.807660
  H 2.699939 -1.726027 -2.304098
  H 3.409764 -2.857928 -5.056108
  H 1.885378 -3.094040 -4.207338
  H 3.366607 -3.785216 -3.555997
  H 6.909681 0.456295 -2.752536
 29
 39.960838
  H 1.539584 1.751322 0.291147
  C 2.481385 1.267711 0.084646
  C 3.150872 0.569529 1.208109
  C 2.469685 0.807143 2.553756
  C 3.179061 0.060242 3.677609
  C 2.966129 1.295269 -1.201946
  C 4.119888 0.722649 -1.622104
  C 4.908248 -0.034834 -2.307194
  C 4.672147 -1.288887 -3.081163
  C 3.188925 -1.637302 -3.183231
  C 2.988771 -2.951237 -3.929392
  O 6.372261 0.246604 -2.158226
  H 4.196916 0.881113 1.274236
  H 3.165608 -0.507475 1.000706
  H 1.429807 0.477007 2.501992
  H 2.466727 1.876129 2.778064
  H 3.178517 -1.011041 3.488544
  H 2.679010 0.235793 4.627148
  H 4.210079 0.393581 3.772134
  H 2.422994 1.877041 -1.938752
  H 6.371160 0.874058 -1.402301
  H 5.208857 -2.109206 -2.597993
  H 5.080028 -1.168567 -4.087536
  H 2.659981 -0.839393 -3.706382
  H 2.761497 -1.718627 -2.182665
  H 3.390071 -2.889711 -4.938495
  H 1.930797 -3.190505 -4.001505
  H 3.484702 -3.769648 -3.412281
  H 6.806327 0.599998 -2.969929
 29
 38.504178
  H 1.573005 1.819951 0.270581
  C 2.499007 1.315501 0.054782
  C 3.147480 0.574562 1.159386
  C 2.448785 0.770417 2.500252
  C 3.136556 -0.016001 3.608300
  C 2.991230 1.362055 -1.231208
  C 4.131453 0.774285 -1.659040
  C 4.934977 0.007178 -2.311575
  C 4.671872 -1.268413 -3.048519
  C 3.191930 -1.627748 -3.082978
  C 2.969637 -2.954899 -3.804486
  O 6.397109 0.253438 -2.246298
  H 4.192958 0.881682 1.250464
  H 3.161918 -0.493144 0.915875
  H 1.409673 0.447548 2.421757
  H 2.446683 1.830467 2.759145
  H 3.132534 -1.080259 3.384337
  H 2.624066 0.131825 4.554425
  H 4.168165 0.307804 3.728286
  H 2.461578 1.965223 -1.958703
  H 6.588745 0.759221 -1.426067
  H 5.231644 -2.071310 -2.567317
  H 5.037697 -1.169638 -4.071092
  H 2.634767 -0.839591 -3.592822
  H 2.807711 -1.698476 -2.064999
  H 3.326862 -2.903169 -4.830712
  H 1.911489 -3.202521 -3.828377
  H 3.494436 -3.764269 -3.298751
  H 6.756068 0.707036 -3.047648
 29
 36.795276
  H 1.768497 2.134878 0.315220
  C 2.602396 1.510887 0.038141
  C 3.128423 0.572065 1.057869
  C 2.436030 0.708002 2.412022
  C 3.000260 -0.277476 3.429401
  C 3.091762 1.598106 -1.248128
  C 4.127392 0.892524 -1.744733
  C 4.937299 0.092386 -2.342187
  C 4.681482 -1.238715 -2.976613
  C 3.215769 -1.656570 -2.873432
  C 2.994314 -3.027535 -3.500635
  O 6.395864 0.398729 -2.410868
  H 4.204194 0.725625 1.187299
  H 3.012526 -0.456812 0.695825
  H 1.364305 0.530572 2.294685
  H 2.563842 1.725972 2.787101
  H 2.865258 -1.301943 3.088657
  H 2.494456 -0.169883 4.386105
  H 4.062641 -0.103710 3.586777
  H 2.630506 2.308137 -1.923706
  H 6.659066 1.055204 -1.726027
  H 5.308846 -1.982419 -2.480660
  H 4.966797 -1.205351 -4.029513
  H 2.587934 -0.920158 -3.377768
  H 2.914241 -1.683632 -1.824630
  H 3.265606 -3.020516 -4.554296
  H 1.948980 -3.316915 -3.424096
  H 3.592036 -3.785093 -2.997550
  H 6.659310 0.712395 -3.307265
