 22
 0.000000
  C 0.998750 0.053293 0.191260
  C 2.500330 0.054948 0.161864
  C 3.291398 -0.017589 1.447432
  C 2.500495 -0.091204 2.752014
  C 3.442726 -0.158688 3.948043
  C 3.118292 0.121903 -1.024663
  H 2.517066 0.172455 -1.920538
  C 4.541292 0.134758 -1.252423
  C 5.083442 0.203235 -2.466066
  H 6.143551 0.211935 -2.620237
  H 0.602824 -0.003577 1.199063
  H 0.612832 -0.796246 -0.369204
  H 0.612836 0.960490 -0.270070
  H 3.942518 0.860592 1.499913
  H 3.942532 -0.896114 1.400786
  H 1.863644 -0.978267 2.753580
  H 1.863649 0.790042 2.853359
  H 4.078958 -1.039035 3.886224
  H 2.877368 -0.211035 4.875776
  H 4.078960 0.723028 3.985649
  H 5.189527 0.085935 -0.387190
  H 4.483623 0.253409 -3.355225
 22
 4.322860
  C 0.982723 0.055472 0.152645
  C 2.462063 0.055518 0.151769
  C 3.252368 -0.017118 1.439058
  C 2.484124 -0.091441 2.756137
  C 3.451636 -0.157838 3.932900
  C 3.111382 0.121831 -1.023417
  H 2.517308 0.172928 -1.928974
  C 4.538954 0.133933 -1.237854
  C 5.092163 0.201996 -2.444129
  H 6.158817 0.209946 -2.584982
  H 0.820132 -0.003622 1.199845
  H 0.561245 -0.799415 -0.371712
  H 0.561249 0.963924 -0.272206
  H 3.903662 0.860862 1.483026
  H 3.903662 -0.894458 1.383987
  H 1.849926 -0.981494 2.775444
  H 1.849911 0.790795 2.875447
  H 4.087993 -1.037156 3.856602
  H 2.906094 -0.210850 4.872346
  H 4.087993 0.724490 3.956002
  H 5.176889 0.084769 -0.366546
  H 4.492556 0.252425 -3.337856
 22
 14.051426
  C 0.952500 0.057168 0.122598
  C 2.434747 0.056606 0.132548
  C 3.226467 -0.016630 1.430465
  C 2.469166 -0.091947 2.765151
  C 3.457184 -0.157683 3.930157
  C 3.108235 0.122295 -1.031585
  H 2.525942 0.173815 -1.944672
  C 4.537549 0.133613 -1.232136
  C 5.099282 0.201306 -2.431876
  H 6.171500 0.208734 -2.563571
  H 1.002995 -0.002282 1.176104
  H 0.514137 -0.805806 -0.361355
  H 0.514135 0.969114 -0.261200
  H 3.881078 0.863457 1.470681
  H 3.881085 -0.895654 1.371419
  H 1.837122 -0.983562 2.799754
  H 1.837128 0.790092 2.899843
  H 4.093167 -1.036265 3.844169
  H 2.925609 -0.211172 4.878008
  H 4.093182 0.725022 3.943558
  H 5.169946 0.084125 -0.355071
  H 4.503313 0.252098 -3.332198
 22
 27.274808
  C 0.912824 0.058831 0.093244
  C 2.409807 0.057554 0.115850
  C 3.212973 -0.016251 1.423825
  C 2.464096 -0.092665 2.778000
  C 3.469500 -0.158003 3.936146
  C 3.104099 0.122707 -1.038802
  H 2.538615 0.174284 -1.952913
  C 4.530464 0.133094 -1.222894
  C 5.107276 0.200866 -2.424031
  H 6.171632 0.207678 -2.544807
  H 1.133600 0.001034 1.117474
  H 0.465254 -0.805025 -0.360743
  H 0.465254 0.968283 -0.260678
  H 3.871524 0.869949 1.459395
  H 3.871584 -0.900889 1.359469
  H 1.830928 -0.985890 2.822537
  H 1.831005 0.789777 2.922715
  H 4.105515 -1.036537 3.842947
  H 2.948513 -0.211890 4.891210
  H 4.105512 0.725439 3.942357
  H 5.157621 0.082992 -0.334942
  H 4.524678 0.251710 -3.325271
 22
 40.438240
  C 0.892131 0.058416 0.100580
  C 2.407127 0.056522 0.134135
  C 3.211437 -0.016420 1.426783
  C 2.466364 -0.091801 2.762575
  C 3.460994 -0.156878 3.916122
  C 3.102365 0.121757 -1.021991
  H 2.532270 0.173537 -1.939695
  C 4.535634 0.132469 -1.211837
  C 5.105179 0.200168 -2.411731
  H 6.174181 0.207302 -2.538220
  H 1.254387 0.002264 1.095685
  H 0.446079 -0.818677 -0.340921
  H 0.446079 0.979612 -0.239448
  H 3.864629 0.863152 1.461222
  H 3.864689 -0.894331 1.362048
  H 1.833984 -0.980992 2.803184
  H 1.834011 0.787125 2.902946
  H 4.095720 -1.034076 3.824922
  H 2.937514 -0.210484 4.866157
  H 4.095696 0.725002 3.924175
  H 5.165317 0.082752 -0.330668
  H 4.516642 0.251013 -3.312964
 22
 53.148842
  C 0.869210 0.058682 0.095817
  C 2.407423 0.056278 0.138460
  C 3.220142 -0.016606 1.430071
  C 2.468351 -0.091789 2.762310
  C 3.457369 -0.157360 3.924548
  C 3.098022 0.121643 -1.019932
  H 2.525660 0.173431 -1.937826
  C 4.533307 0.132480 -1.212006
  C 5.099412 0.200220 -2.412658
  H 6.170984 0.207529 -2.542377
  H 1.339459 0.005029 1.046650
  H 0.435010 -0.823041 -0.338939
  H 0.435005 0.983722 -0.236988
  H 3.872648 0.865162 1.463801
  H 3.872695 -0.896591 1.364377
  H 1.832605 -0.983045 2.796356
  H 1.832609 0.789946 2.896399
  H 4.094286 -1.036830 3.838065
  H 2.927659 -0.210692 4.869685
  H 4.094260 0.726253 3.937548
  H 5.165442 0.082753 -0.330744
  H 4.507716 0.251051 -3.313744
 22
 63.984123
  C 0.853161 0.058837 0.093174
  C 2.410859 0.056107 0.141597
  C 3.235895 -0.017247 1.441577
  C 2.477605 -0.092217 2.770023
  C 3.447070 -0.157497 3.927170
  C 3.096679 0.121618 -1.019438
  H 2.524024 0.173166 -1.933108
  C 4.528957 0.132661 -1.215158
  C 5.091801 0.200615 -2.419678
  H 6.157286 0.208076 -2.552108
  H 1.405230 0.007689 0.999654
  H 0.433566 -0.826461 -0.342430
  H 0.433567 0.987511 -0.240071
  H 3.886301 0.861222 1.475564
  H 3.886375 -0.894013 1.376522
  H 1.847264 -0.972820 2.798931
  H 1.847303 0.779459 2.897790
  H 4.076191 -1.026558 3.845189
  H 2.910889 -0.210672 4.869599
  H 4.076133 0.715227 3.943471
  H 5.159492 0.083311 -0.340572
  H 4.497966 0.251219 -3.316779
 22
 72.968593
  C 0.833281 0.058425 0.100522
  C 2.409198 0.055670 0.149448
  C 3.239971 -0.017105 1.439211
  C 2.476322 -0.091518 2.757789
  C 3.446894 -0.157882 3.934239
  C 3.086711 0.121297 -1.013631
  H 2.509850 0.172665 -1.924223
  C 4.534791 0.132814 -1.217649
  C 5.088108 0.200692 -2.420950
  H 6.156800 0.208505 -2.559807
  H 1.453604 0.009389 0.969597
  H 0.429824 -0.832767 -0.342945
  H 0.429812 0.993858 -0.239882
  H 3.892710 0.866722 1.471846
  H 3.892861 -0.899130 1.372208
  H 1.839307 -0.977613 2.778845
  H 1.839376 0.786449 2.878362
  H 4.086950 -1.041977 3.857058
  H 2.905011 -0.210676 4.869925
  H 4.086846 0.729203 3.956984
  H 5.185463 0.082472 -0.325504
  H 4.489158 0.250999 -3.313158
 22
 80.566156
  C 0.821584 0.058645 0.096158
  C 2.425868 0.055237 0.157379
  C 3.258531 -0.017373 1.444163
  C 2.483034 -0.092010 2.765705
  C 3.441884 -0.158599 3.945651
  C 3.098671 0.121245 -1.011679
  H 2.518608 0.172789 -1.925671
  C 4.523310 0.132884 -1.216600
  C 5.074382 0.201105 -2.427060
  H 6.144760 0.208903 -2.570095
  H 1.502688 0.010671 0.946298
  H 0.439990 -0.830187 -0.361345
  H 0.439937 0.993302 -0.258403
  H 3.909396 0.866782 1.475747
  H 3.909386 -0.899333 1.376046
  H 1.842531 -0.980508 2.780890
  H 1.842416 0.789156 2.880809
  H 4.075991 -1.034428 3.874060
  H 2.894734 -0.211078 4.874759
  H 4.075938 0.719773 3.973099
  H 5.159351 0.083785 -0.347784
  H 4.469359 0.251250 -3.321400
 22
 87.288927
  C 0.805120 0.058216 0.103591
  C 2.433976 0.054746 0.165707
  C 3.269717 -0.017319 1.442865
  C 2.485273 -0.092018 2.765736
  C 3.438058 -0.159132 3.954984
  C 3.093410 0.121021 -1.008171
  H 2.506975 0.172511 -1.920901
  C 4.523778 0.133100 -1.221167
  C 5.066660 0.201469 -2.433761
  H 6.135293 0.209673 -2.583104
  H 1.535825 0.012384 0.915762
  H 0.451861 -0.832498 -0.376054
  H 0.451819 0.997252 -0.272775
  H 3.923141 0.872051 1.472771
  H 3.923099 -0.904256 1.372503
  H 1.846822 -0.975619 2.775212
  H 1.846731 0.784926 2.874606
  H 4.072056 -1.034517 3.888199
  H 2.884638 -0.211444 4.881306
  H 4.072072 0.718317 3.987155
  H 5.169581 0.083779 -0.348220
  H 4.456692 0.251455 -3.323988
 22
 92.834841
  C 0.778879 0.058448 0.099473
  C 2.448830 0.054226 0.174224
  C 3.290389 -0.018433 1.462312
  C 2.498530 -0.092433 2.773881
  C 3.432856 -0.159267 3.958184
  C 3.092242 0.120738 -1.004800
  H 2.500860 0.171764 -1.909152
  C 4.521779 0.133403 -1.229483
  C 5.054742 0.202058 -2.446021
  H 6.124028 0.211092 -2.604646
  H 1.559209 0.013949 0.888231
  H 0.464256 -0.826706 -0.413102
  H 0.464292 0.995597 -0.310294
  H 3.937972 0.862654 1.496246
  H 3.937772 -0.897499 1.396948
  H 1.853737 -0.983598 2.777215
  H 1.853620 0.792862 2.877447
  H 4.073852 -1.046406 3.894372
  H 2.869435 -0.211267 4.880099
  H 4.073611 0.729117 3.994545
  H 5.170460 0.084753 -0.366782
  H 4.440975 0.251796 -3.326113
 22
 97.821847
  C 0.747810 0.058412 0.099845
  C 2.470330 0.053655 0.186949
  C 3.309664 -0.018851 1.471874
  C 2.507421 -0.092376 2.771659
  C 3.433560 -0.160267 3.974713
  C 3.091779 0.120782 -1.000403
  H 2.492435 0.171416 -1.898595
  C 4.519328 0.134396 -1.237462
  C 5.040482 0.203074 -2.458506
  H 6.106598 0.211623 -2.626505
  H 1.576811 0.015797 0.855355
  H 0.482182 -0.819856 -0.453282
  H 0.482004 0.993374 -0.350810
  H 3.958055 0.863015 1.510213
  H 3.958229 -0.899274 1.410650
  H 1.863101 -0.981195 2.765016
  H 1.862897 0.791409 2.865166
  H 4.071449 -1.042710 3.919858
  H 2.861651 -0.211848 4.886893
  H 4.071160 0.722769 4.019612
  H 5.175732 0.085658 -0.378252
  H 4.416333 0.251623 -3.336481
 22
 101.658112
  C 0.700055 0.058542 0.096902
  C 2.499524 0.052852 0.200256
  C 3.335472 -0.019441 1.481353
  C 2.519833 -0.092624 2.775604
  C 3.432724 -0.161181 3.990704
  C 3.092648 0.120426 -0.995396
  H 2.478974 0.170913 -1.890889
  C 4.521684 0.134965 -1.249470
  C 5.028371 0.203999 -2.476140
  H 6.090446 0.213385 -2.656169
  H 1.585528 0.018167 0.812767
  H 0.495640 -0.813156 -0.498589
  H 0.495525 0.991720 -0.396577
  H 3.983866 0.862491 1.524640
  H 3.984004 -0.900454 1.425056
  H 1.876512 -0.977018 2.758373
  H 1.876290 0.788047 2.858059
  H 4.070908 -1.044259 3.942376
  H 2.845029 -0.212844 4.904465
  H 4.070690 0.721739 4.042142
  H 5.184487 0.086808 -0.399768
  H 4.397637 0.252039 -3.341980
 22
 105.092018
  C 0.624071 0.059243 0.077311
  C 2.529864 0.053743 0.207790
  C 3.361352 -0.018521 1.484799
  C 2.536340 -0.093188 2.773780
  C 3.441068 -0.162434 3.998881
  C 3.103838 0.122838 -0.992395
  H 2.482079 0.172781 -1.884836
  C 4.532097 0.140164 -1.256152
  C 5.030068 0.207318 -2.486259
  H 6.088443 0.207606 -2.673096
  H 1.590610 0.020080 0.778149
  H 0.460941 -0.811189 -0.541774
  H 0.459020 0.994384 -0.438071
  H 4.009914 0.865372 1.530644
  H 4.011761 -0.900423 1.429528
  H 1.896828 -0.974746 2.754565
  H 1.894848 0.783509 2.855262
  H 4.078263 -1.040724 3.954342
  H 2.843093 -0.215541 4.914875
  H 4.076436 0.716552 4.055039
  H 5.198527 0.089703 -0.411244
  H 4.393743 0.245212 -3.348204
