 32
 0.000000
  C 0.978673 0.136895 0.392062
  C 2.457035 0.139445 0.397824
  C 3.237623 0.610173 1.569271
  C 2.454193 1.098458 2.784939
  C 3.397330 1.545445 3.897256
  C 3.077025 -0.323749 -0.755524
  C 4.456168 -0.411822 -0.975226
  C 5.126656 -0.863898 -2.102043
  C 4.621504 -1.386279 -3.404154
  C 3.129250 -1.501962 -3.693433
  C 2.898182 -2.063632 -5.093497
  O 6.453322 -0.864794 -2.104414
  H 0.521890 0.503678 1.305675
  H 0.614534 -0.877409 0.221239
  H 0.614168 0.751186 -0.432784
  H 3.893806 1.423259 1.238074
  H 3.894042 -0.205873 1.892569
  H 1.815826 0.300187 3.168756
  H 1.815627 1.940280 2.509886
  H 4.033404 0.725082 4.223721
  H 2.826889 1.890589 4.756627
  H 4.033173 2.363812 3.565357
  H 2.418633 -0.641422 -1.546356
  H 5.077577 -0.080808 -0.150683
  H 5.074513 -2.376187 -3.532216
  H 5.074933 -0.759689 -4.180907
  H 2.655599 -0.520768 -3.638552
  H 2.655131 -2.172892 -2.975669
  H 3.334530 -1.417034 -5.851771
  H 1.831796 -2.142875 -5.291779
  H 3.334077 -3.055240 -5.194501
  H 6.823609 -0.528907 -1.266628
 32
 -0.501504
  C 0.951775 -0.018031 0.487340
  C 2.423551 0.002757 0.446703
  C 3.221765 0.542810 1.576412
  C 2.455221 1.144739 2.749712
  C 3.420625 1.695584 3.795106
  C 3.036100 -0.478074 -0.706662
  C 4.413434 -0.537110 -0.918960
  C 5.104542 -0.950479 -2.052889
  C 4.616659 -1.399839 -3.386121
  C 3.128723 -1.475810 -3.704499
  C 2.927216 -1.936389 -5.147370
  O 6.423241 -0.955240 -2.023657
  H 0.560495 0.142609 1.485932
  H 0.553615 -0.947418 0.078653
  H 0.568112 0.792835 -0.142046
  H 3.905662 1.308264 1.188367
  H 3.858876 -0.264982 1.961883
  H 1.825338 0.387799 3.223721
  H 1.811698 1.956671 2.402233
  H 4.063990 0.907923 4.185411
  H 2.869534 2.123573 4.630455
  H 4.049564 2.477805 3.371979
  H 2.378744 -0.827921 -1.483639
  H 5.039242 -0.220528 -0.090558
  H 5.066281 -2.385724 -3.560128
  H 5.097886 -0.739472 -4.119366
  H 2.666544 -0.493243 -3.589013
  H 2.632581 -2.189459 -3.043696
  H 3.375697 -1.233513 -5.847841
  H 1.865562 -2.007590 -5.375299
  H 3.373488 -2.916354 -5.310493
  H 6.804707 -0.675754 -1.169384
 32
 -0.931750
  C 0.955590 -0.148530 0.578418
  C 2.422619 -0.080324 0.473573
  C 3.219702 0.528847 1.566204
  C 2.449732 1.198524 2.701505
  C 3.413101 1.836933 3.697812
  C 3.023435 -0.568889 -0.680756
  C 4.400888 -0.619496 -0.893137
  C 5.099752 -1.031744 -2.022977
  C 4.619567 -1.418915 -3.377196
  C 3.137236 -1.411154 -3.725972
  C 2.946792 -1.804849 -5.188527
  O 6.416480 -1.083250 -1.968264
  H 0.641675 -0.230363 1.613903
  H 0.538587 -0.957532 -0.014409
  H 0.531600 0.785856 0.200293
  H 3.902686 1.268442 1.136749
  H 3.855737 -0.252355 1.999719
  H 1.836154 0.469505 3.233149
  H 1.790758 1.970845 2.301983
  H 4.070838 1.090195 4.137158
  H 2.862156 2.314038 4.504513
  H 4.026251 2.595649 3.216621
  H 2.363257 -0.943590 -1.443295
  H 5.026027 -0.314374 -0.062574
  H 5.028539 -2.415734 -3.577662
  H 5.147103 -0.757203 -4.074604
  H 2.721512 -0.413515 -3.578695
  H 2.591710 -2.121927 -3.105310
  H 3.408454 -1.076815 -5.851345
  H 1.888440 -1.855640 -5.431319
  H 3.385207 -2.779293 -5.390408
  H 6.799163 -0.854473 -1.100687
 32
 -0.765261
  C 0.981885 -0.277971 0.667579
  C 2.435496 -0.133426 0.496253
  C 3.228226 0.546296 1.549932
  C 2.443318 1.262945 2.645644
  C 3.390199 1.970172 3.610514
  C 3.029415 -0.631028 -0.656315
  C 4.405371 -0.675848 -0.878193
  C 5.098098 -1.114539 -2.002130
  C 4.620847 -1.444508 -3.373081
  C 3.159325 -1.279202 -3.767554
  C 2.964171 -1.687506 -5.225410
  O 6.408132 -1.243443 -1.927440
  H 0.757459 -0.592647 1.684387
  H 0.545632 -0.969325 -0.046458
  H 0.499896 0.694615 0.543210
  H 3.904777 1.268066 1.083062
  H 3.870311 -0.204121 2.027434
  H 1.836353 0.554720 3.211091
  H 1.774363 2.001723 2.201481
  H 4.056134 1.259214 4.094550
  H 2.826867 2.482871 4.386219
  H 3.995459 2.710082 3.091503
  H 2.368460 -1.040061 -1.400515
  H 5.034710 -0.372530 -0.050057
  H 4.934703 -2.474435 -3.577017
  H 5.232780 -0.827734 -4.042162
  H 2.860415 -0.235481 -3.654702
  H 2.508653 -1.892652 -3.146673
  H 3.456143 -0.987163 -5.896069
  H 1.906247 -1.701061 -5.475450
  H 3.364807 -2.681303 -5.410153
  H 6.790806 -1.058851 -1.049293
 32
 0.762576
  C 1.009810 -0.422229 0.755762
  C 2.445141 -0.194010 0.529155
  C 3.228876 0.554995 1.541385
  C 2.429738 1.303382 2.605325
  C 3.361413 2.068163 3.540397
  C 3.034522 -0.702746 -0.619972
  C 4.406892 -0.728149 -0.863285
  C 5.086955 -1.199904 -1.983151
  C 4.613417 -1.477830 -3.368192
  C 3.220255 -1.069688 -3.834714
  C 2.957938 -1.604736 -5.241186
  O 6.384530 -1.412288 -1.891879
  H 0.870092 -0.893278 1.728854
  H 0.561288 -1.039929 -0.015674
  H 0.475475 0.527583 0.807199
  H 3.890545 1.265562 1.038396
  H 3.885292 -0.159835 2.053415
  H 1.832448 0.609211 3.197371
  H 1.749871 2.011518 2.128313
  H 4.038179 1.390655 4.056300
  H 2.787230 2.604353 4.291873
  H 3.955393 2.794991 2.990734
  H 2.374793 -1.163586 -1.335173
  H 5.045088 -0.414780 -0.045349
  H 4.758066 -2.549848 -3.545009
  H 5.348109 -0.986073 -4.016444
  H 3.151628 0.019533 -3.856994
  H 2.441342 -1.434704 -3.172603
  H 3.505001 -1.032485 -5.986425
  H 1.899872 -1.536511 -5.481008
  H 3.252854 -2.647811 -5.325820
  H 6.764610 -1.268380 -1.004643
 32
 2.172392
  C 1.036857 -0.542730 0.777275
  C 2.460512 -0.264097 0.531809
  C 3.223855 0.541052 1.515920
  C 2.402063 1.316506 2.542944
  C 3.311969 2.125117 3.462273
  C 3.063210 -0.791515 -0.601429
  C 4.436132 -0.801033 -0.843547
  C 5.108087 -1.312713 -1.951779
  C 4.630134 -1.543503 -3.343213
  C 3.358702 -0.870290 -3.860362
  C 2.871575 -1.539090 -5.146567
  O 6.384055 -1.616357 -1.839025
  H 0.939577 -1.077268 1.723367
  H 0.590443 -1.137625 -0.013350
  H 0.472230 0.381741 0.897317
  H 3.877437 1.241177 0.988763
  H 3.887425 -0.140887 2.062678
  H 1.804531 0.636031 3.150265
  H 1.721421 1.999942 2.031828
  H 3.987734 1.474398 4.012780
  H 2.721345 2.682802 4.184835
  H 3.906735 2.837182 2.894405
  H 2.417978 -1.303966 -1.297031
  H 5.073949 -0.478434 -0.028939
  H 4.561889 -2.629328 -3.479416
  H 5.463145 -1.234288 -3.983605
  H 3.586018 0.175350 -4.078563
  H 2.556634 -0.866195 -3.132012
  H 3.419228 -1.174166 -6.011734
  H 1.817614 -1.329152 -5.308978
  H 2.991912 -2.618682 -5.100606
  H 6.753927 -1.509641 -0.942285
 32
 3.896392
  C 1.035209 -0.488562 0.694021
  C 2.466539 -0.226825 0.475144
  C 3.223819 0.568215 1.472264
  C 2.393813 1.380339 2.463993
  C 3.298553 2.169112 3.405365
  C 3.086281 -0.774826 -0.638685
  C 4.465509 -0.841308 -0.833485
  C 5.133040 -1.414968 -1.913769
  C 4.675228 -1.593599 -3.319284
  C 3.500033 -0.771901 -3.855643
  C 2.777159 -1.473400 -5.007484
  O 6.369222 -1.836714 -1.756800
  H 0.920908 -1.046165 1.625041
  H 0.595565 -1.064542 -0.114512
  H 0.477207 0.437777 0.825470
  H 3.911694 1.242809 0.955515
  H 3.851155 -0.124638 2.047113
  H 1.754100 0.726235 3.057019
  H 1.754064 2.080141 1.922946
  H 3.936914 1.502995 3.981550
  H 2.702895 2.750183 4.104998
  H 3.932100 2.858030 2.851061
  H 2.449338 -1.276152 -1.351490
  H 5.092054 -0.553292 0.002201
  H 4.488475 -2.665485 -3.451451
  H 5.554087 -1.375093 -3.932902
  H 3.913918 0.165099 -4.244571
  H 2.801049 -0.441022 -3.096333
  H 3.217650 -1.217915 -5.966807
  H 1.733059 -1.170703 -5.040617
  H 2.798777 -2.554203 -4.894239
  H 6.713286 -1.767379 -0.846099
 32
 9.653184
  C 1.027621 -0.394662 0.644190
  C 2.466792 -0.160040 0.444318
  C 3.236588 0.587612 1.468475
  C 2.418439 1.414699 2.457979
  C 3.333117 2.144610 3.436527
  C 3.085722 -0.719048 -0.664138
  C 4.463352 -0.870418 -0.819578
  C 5.117611 -1.501340 -1.876603
  C 4.705481 -1.649733 -3.302149
  C 3.498039 -0.880963 -3.842431
  C 2.786808 -1.569682 -5.007868
  O 6.315069 -2.010607 -1.677847
  H 0.897150 -0.986389 1.551941
  H 0.585136 -0.934752 -0.187410
  H 0.484162 0.535693 0.802598
  H 3.955864 1.245521 0.973083
  H 3.828688 -0.136443 2.041656
  H 1.736592 0.777715 3.021755
  H 1.823554 2.152410 1.916052
  H 3.931024 1.440076 4.010480
  H 2.746080 2.733588 4.136833
  H 4.006365 2.818945 2.911897
  H 2.443797 -1.175725 -1.401616
  H 5.080479 -0.634326 0.039014
  H 4.591161 -2.725600 -3.471052
  H 5.588973 -1.333846 -3.862410
  H 3.936607 0.036839 -4.279665
  H 2.845040 -0.382489 -3.136396
  H 3.160763 -1.230451 -5.967726
  H 1.724285 -1.329157 -4.991133
  H 2.862343 -2.651976 -4.945868
  H 6.629067 -1.967631 -0.754900
 32
 23.690773
  C 1.014831 -0.243834 0.617117
  C 2.461970 -0.037506 0.427939
  C 3.250550 0.656168 1.476452
  C 2.450962 1.486604 2.478423
  C 3.378806 2.153934 3.488972
  C 3.070083 -0.614022 -0.677810
  C 4.435727 -0.868328 -0.806033
  C 5.066502 -1.548376 -1.844508
  C 4.688013 -1.724877 -3.284046
  C 3.428309 -1.061837 -3.834794
  C 2.872290 -1.642028 -5.131920
  O 6.252284 -2.082649 -1.623250
  H 0.864349 -0.890399 1.483345
  H 0.572475 -0.732302 -0.246961
  H 0.481883 0.684099 0.815040
  H 3.990466 1.304694 0.998894
  H 3.814427 -0.100541 2.034391
  H 1.737179 0.861492 3.015017
  H 1.894016 2.261912 1.948860
  H 3.942998 1.412175 4.049891
  H 2.804298 2.745022 4.197843
  H 4.082480 2.818175 2.991917
  H 2.417501 -1.023704 -1.433251
  H 5.047020 -0.676114 0.067920
  H 4.678696 -2.804211 -3.441470
  H 5.552534 -1.256231 -3.759267
  H 3.853509 -0.078094 -4.194245
  H 2.766637 -0.456798 -3.224598
  H 3.259149 -1.160962 -6.022150
  H 1.801933 -1.411998 -5.175002
  H 2.930753 -2.724353 -5.170451
  H 6.543780 -2.036442 -0.692812
 32
 44.056631
  C 1.018691 -0.141254 0.563243
  C 2.481933 0.004322 0.407087
  C 3.275567 0.624665 1.505000
  C 2.494725 1.548268 2.441529
  C 3.417574 2.155024 3.494095
  C 3.083672 -0.596796 -0.689409
  C 4.445870 -0.868644 -0.810208
  C 5.065516 -1.585119 -1.822591
  C 4.670044 -1.843462 -3.258664
  C 3.410352 -1.178367 -3.804651
  C 2.883846 -1.658947 -5.152085
  O 6.262704 -2.120123 -1.581108
  H 0.837720 -0.770734 1.429989
  H 0.596702 -0.663080 -0.294180
  H 0.497191 0.800641 0.697165
  H 4.104809 1.193322 1.076758
  H 3.714650 -0.182208 2.104757
  H 1.689599 1.008740 2.938842
  H 2.056288 2.360924 1.857801
  H 3.863763 1.382062 4.115323
  H 2.862910 2.830948 4.140487
  H 4.217433 2.724720 3.025572
  H 2.434252 -0.997814 -1.451745
  H 5.058453 -0.648009 0.053830
  H 4.647253 -2.929650 -3.335102
  H 5.539741 -1.357207 -3.706888
  H 3.889346 -0.175363 -4.147736
  H 2.865249 -0.400277 -3.281798
  H 3.262669 -1.133030 -6.019240
  H 1.827850 -1.341380 -5.194539
  H 2.817446 -2.736039 -5.240111
  H 6.563357 -2.000704 -0.657245
 32
 77.481246
  C 1.050420 -0.213014 0.531441
  C 2.512455 -0.008693 0.341026
  C 3.292946 0.709653 1.399640
  C 2.470112 1.575926 2.351961
  C 3.367819 2.260770 3.378066
  C 3.131731 -0.619431 -0.720814
  C 4.513280 -0.919257 -0.814844
  C 5.102356 -1.684218 -1.781317
  C 4.684329 -1.974712 -3.227939
  C 3.451133 -1.260690 -3.705027
  C 2.892936 -1.562012 -5.068684
  O 6.286323 -2.264664 -1.551740
  H 0.904501 -0.856830 1.398958
  H 0.620998 -0.717710 -0.331372
  H 0.505263 0.711564 0.701836
  H 4.038516 1.348922 0.918627
  H 3.842035 -0.032990 1.989173
  H 1.734457 0.969403 2.881019
  H 1.934462 2.340281 1.785558
  H 3.908233 1.526876 3.972171
  H 2.773174 2.868997 4.055953
  H 4.091269 2.910169 2.889624
  H 2.496234 -1.063862 -1.477153
  H 5.103037 -0.722537 0.072449
  H 4.652713 -3.054942 -3.248562
  H 5.563054 -1.406835 -3.556433
  H 3.930968 -0.115239 -3.894924
  H 3.075665 -0.341002 -3.203899
  H 3.214953 -0.945038 -5.903973
  H 1.879243 -1.092900 -5.038106
  H 2.639131 -2.595230 -5.250600
  H 6.576520 -2.148431 -0.635553
 32
 109.058879
  C 1.056107 -0.279481 0.517972
  C 2.525233 -0.084129 0.341453
  C 3.298512 0.655150 1.393669
  C 2.466332 1.587566 2.273588
  C 3.353167 2.313694 3.281098
  C 3.129973 -0.711482 -0.694944
  C 4.527258 -0.967469 -0.813809
  C 5.111754 -1.738112 -1.771361
  C 4.648111 -2.070696 -3.223982
  C 3.445543 -1.295017 -3.644557
  C 2.879688 -1.450315 -5.014256
  O 6.325775 -2.298010 -1.559002
  H 0.909508 -0.904830 1.399259
  H 0.677195 -0.867678 -0.317163
  H 0.472944 0.631340 0.596596
  H 4.083062 1.247792 0.916471
  H 3.799656 -0.078180 2.035513
  H 1.697067 1.031268 2.807979
  H 1.984518 2.335859 1.640715
  H 3.851908 1.609753 3.943617
  H 2.757839 2.991473 3.889247
  H 4.108849 2.907185 2.770623
  H 2.496523 -1.192032 -1.429873
  H 5.133801 -0.712854 0.046682
  H 4.615820 -3.144658 -3.202705
  H 5.526142 -1.445578 -3.450071
  H 4.020249 0.003118 -3.761147
  H 3.242568 -0.297642 -3.144396
  H 3.114860 -0.728741 -5.792974
  H 1.908655 -0.873216 -4.878329
  H 2.445253 -2.408035 -5.247938
  H 6.626397 -2.143717 -0.651412
 32
 78.960201
  C 1.045115 -0.205892 0.553371
  C 2.508077 -0.024393 0.372935
  C 3.292896 0.673847 1.436764
  C 2.481168 1.599864 2.341895
  C 3.386722 2.293717 3.355285
  C 3.110412 -0.639417 -0.686776
  C 4.492797 -0.912233 -0.798276
  C 5.093755 -1.668279 -1.775203
  C 4.679200 -1.958290 -3.223612
  C 3.438001 -1.243944 -3.690893
  C 2.915891 -1.513236 -5.079290
  O 6.290644 -2.224663 -1.536676
  H 0.901087 -0.824872 1.439799
  H 0.638799 -0.773752 -0.281634
  H 0.484994 0.717204 0.660627
  H 4.080811 1.267329 0.965424
  H 3.786889 -0.080946 2.058284
  H 1.708865 1.045247 2.873710
  H 2.002307 2.366769 1.729680
  H 3.879811 1.570365 4.000765
  H 2.806942 2.968213 3.981346
  H 4.148457 2.884333 2.850554
  H 2.471624 -1.086898 -1.436347
  H 5.097162 -0.675807 0.069511
  H 4.651206 -3.038700 -3.239236
  H 5.559982 -1.386966 -3.540389
  H 3.943526 -0.115021 -3.882172
  H 3.051864 -0.333281 -3.186011
  H 3.219416 -0.853779 -5.888498
  H 1.902448 -1.033987 -5.044504
  H 2.645149 -2.533781 -5.299356
  H 6.572827 -2.106509 -0.614987
 32
 45.241344
  C 1.041304 -0.141330 0.560136
  C 2.499987 0.022857 0.397653
  C 3.286479 0.678604 1.473880
  C 2.494158 1.605756 2.394659
  C 3.406075 2.245884 3.436134
  C 3.106791 -0.592619 -0.682184
  C 4.468725 -0.876232 -0.789999
  C 5.081915 -1.617511 -1.790371
  C 4.701647 -1.857540 -3.236356
  C 3.462014 -1.143578 -3.766014
  C 2.908418 -1.605354 -5.111678
  O 6.278428 -2.131738 -1.552195
  H 0.856820 -0.801093 1.410839
  H 0.623345 -0.640995 -0.312454
  H 0.508628 0.792833 0.719052
  H 4.098903 1.256081 1.025035
  H 3.746963 -0.105122 2.085749
  H 1.695437 1.064061 2.900864
  H 2.039627 2.399668 1.798385
  H 3.870294 1.492840 4.068518
  H 2.838928 2.922418 4.070914
  H 4.191218 2.826853 2.956474
  H 2.458884 -1.015631 -1.434679
  H 5.083421 -0.636590 0.068314
  H 4.635141 -2.940616 -3.292763
  H 5.590525 -1.378126 -3.646116
  H 3.985228 -0.173897 -4.129015
  H 2.944564 -0.349832 -3.234217
  H 3.270038 -1.075419 -5.983608
  H 1.863979 -1.240260 -5.130697
  H 2.779822 -2.676021 -5.204302
  H 6.550156 -2.079930 -0.617188
 32
 38.984285
  C 1.012176 -0.061878 0.440929
  C 2.484036 -0.017766 0.350585
  C 3.259182 0.622689 1.447897
  C 2.473460 1.559255 2.367496
  C 3.393716 2.147683 3.433389
  C 3.114546 -0.628329 -0.714857
  C 4.481917 -0.917944 -0.779677
  C 5.152133 -1.580486 -1.799792
  C 4.762332 -1.815253 -3.224307
  C 3.572237 -1.086676 -3.807596
  C 2.780738 -1.678457 -4.954105
  O 6.349201 -2.091126 -1.562525
  H 0.750079 -0.681013 1.301286
  H 0.561282 -0.499546 -0.445041
  H 0.590651 0.924932 0.618275
  H 4.100252 1.176114 1.026469
  H 3.674565 -0.183477 2.065744
  H 1.668483 1.018641 2.858639
  H 2.058458 2.378979 1.775167
  H 3.830828 1.361462 4.046172
  H 2.840198 2.816129 4.087996
  H 4.202126 2.714581 2.978067
  H 2.492742 -1.001324 -1.515256
  H 5.046875 -0.769918 0.133216
  H 4.653491 -2.894907 -3.334817
  H 5.665612 -1.484689 -3.747772
  H 4.005391 -0.100641 -4.213847
  H 3.121723 -0.244895 -3.252833
  H 3.035649 -1.279454 -5.930136
  H 1.737588 -1.343484 -4.844457
  H 2.714532 -2.757023 -4.903249
  H 6.654064 -1.979858 -0.644496
