10

H 1.4348730379397152 -0.07422662337755907 0.042341862425252536
C 2.504698 -0.083011 0.025097
C 3.218186 -0.596514 -0.983
C 4.655418 -0.607171 -1.003919
C 5.376735 -1.122059 -2.01473
H 6.4466346965974 -1.1287095280164723 -2.0277841065528563
H 3.006973 0.351917 0.878935
H 2.705298 -1.029458 -1.832929
H 5.159353 -0.172177 -0.149957
H 4.872888 -1.557038 -2.868667
