 17
 0.000000
  H 1.434013 -0.075941 0.038977
  C 2.507103 -0.083185 0.024755
  C 3.219651 -0.594064 -0.978188
  C 4.656710 -0.606440 -1.002481
  C 5.376500 -1.121973 -2.014557
  C 6.813889 -1.132429 -2.035081
  C 7.535114 -1.642693 -3.036821
  C 9.024183 -1.660820 -3.072398
  H 3.005289 0.351697 0.878505
  H 2.708682 -1.027381 -1.828851
  H 5.162394 -0.172071 -0.149745
  H 4.871967 -1.556636 -2.867874
  H 7.318629 -0.697688 -1.181615
  H 7.038183 -2.079183 -3.893710
  H 9.453550 -1.207115 -2.181705
  H 9.385049 -1.115396 -3.945259
  H 9.385046 -2.687545 -3.144430
 17
 1.424425
  H 1.443605 0.077740 -0.084754
  C 2.517032 0.021258 -0.033962
  C 3.239470 -0.583351 -0.975447
  C 4.673482 -0.686869 -0.942542
  C 5.400202 -1.301541 -1.892102
  C 6.835934 -1.367621 -1.867415
  C 7.554542 -1.780611 -2.913576
  C 9.015094 -1.577916 -3.114995
  H 2.981574 0.478307 0.824511
  H 2.746543 -1.036429 -1.826734
  H 5.172565 -0.226950 -0.099130
  H 4.897482 -1.766085 -2.730605
  H 7.330278 -0.921649 -1.013561
  H 7.040805 -2.230858 -3.755593
  H 9.506283 -1.278351 -2.191459
  H 9.164464 -0.793591 -3.858089
  H 9.489773 -2.482938 -3.492679
 17
 9.085096
  H 1.577366 0.332379 -0.235615
  C 2.645027 0.208556 -0.179914
  C 3.306387 -0.600161 -1.004405
  C 4.730896 -0.805927 -0.957146
  C 5.389207 -1.632869 -1.782769
  C 6.827073 -1.818598 -1.710706
  C 7.518898 -1.796252 -2.851089
  C 8.916368 -1.354031 -3.105497
  H 3.153715 0.768611 0.587481
  H 2.769569 -1.150549 -1.767246
  H 5.277507 -0.239207 -0.214382
  H 4.827710 -2.190660 -2.520898
  H 7.307030 -1.516121 -0.787459
  H 7.013350 -2.129920 -3.753569
  H 9.446241 -1.140684 -2.178761
  H 8.878554 -0.445035 -3.705282
  H 9.477062 -2.099601 -3.669571
 17
 9.085096
  H 1.577366 0.332379 -0.235615
  C 2.645027 0.208556 -0.179914
  C 3.306387 -0.600161 -1.004405
  C 4.730896 -0.805927 -0.957146
  C 5.389207 -1.632869 -1.782769
  C 6.827073 -1.818598 -1.710706
  C 7.518898 -1.796252 -2.851089
  C 8.916368 -1.354031 -3.105497
  H 3.153715 0.768611 0.587481
  H 2.769569 -1.150549 -1.767246
  H 5.277507 -0.239207 -0.214382
  H 4.827710 -2.190660 -2.520898
  H 7.307030 -1.516121 -0.787459
  H 7.013350 -2.129920 -3.753569
  H 9.446241 -1.140684 -2.178761
  H 8.878554 -0.445035 -3.705282
  H 9.477062 -2.099601 -3.669571
 17
 41.516617
  H 1.852955 0.498972 -0.276865
  C 2.915396 0.331085 -0.294932
  C 3.470642 -0.587371 -1.084123
  C 4.882716 -0.843413 -1.154506
  C 5.425358 -1.808237 -1.922354
  C 6.781151 -2.290399 -1.614386
  C 7.376217 -1.886953 -2.765300
  C 8.609973 -1.068352 -2.960328
  H 3.510536 0.939193 0.366112
  H 2.842564 -1.191135 -1.727647
  H 5.519813 -0.253129 -0.508967
  H 4.766378 -2.361524 -2.577502
  H 7.236783 -1.996009 -0.676780
  H 7.076632 -2.376024 -3.687246
  H 9.002021 -0.703219 -2.013053
  H 8.361422 -0.219770 -3.594018
  H 9.392249 -1.641336 -3.462735
 17
 54.127190
  H 2.198466 0.646521 -0.519770
  C 3.248485 0.416113 -0.514737
  C 3.755256 -0.601701 -1.229337
  C 5.134210 -0.914724 -1.299299
  C 5.641117 -2.007576 -2.001829
  C 6.850509 -2.657769 -1.426239
  C 7.154992 -2.001145 -2.646871
  C 8.070318 -0.812029 -2.783095
  H 3.880050 1.045206 0.090367
  H 3.088496 -1.220577 -1.818021
  H 5.810797 -0.317817 -0.705486
  H 4.960182 -2.578684 -2.616584
  H 7.285721 -2.298503 -0.504063
  H 7.021941 -2.540239 -3.578328
  H 8.328665 -0.398458 -1.810088
  H 7.595239 -0.033446 -3.379438
  H 8.986328 -1.111993 -3.289390
 17
 60.061357
  H 2.159888 0.481901 -0.320883
  C 3.219718 0.323549 -0.412114
  C 3.729518 -0.606148 -1.232637
  C 5.121508 -0.827132 -1.406956
  C 5.639587 -1.803388 -2.257894
  C 6.686457 -2.520967 -1.321604
  C 7.128065 -1.976413 -2.589465
  C 8.097132 -0.845673 -2.862008
  H 3.856082 0.953798 0.186485
  H 3.063426 -1.230054 -1.815256
  H 5.792047 -0.205792 -0.832340
  H 4.984224 -2.367761 -2.904046
  H 7.147111 -2.040919 -0.466046
  H 7.239192 -2.750735 -3.349892
  H 8.158586 -0.159026 -2.018818
  H 7.783568 -0.283375 -3.740295
  H 9.089407 -1.250934 -3.047115
 17
 81.964050
  H 2.077856 0.489746 -0.468504
  C 3.139244 0.316750 -0.512590
  C 3.672989 -0.592328 -1.325339
  C 5.088103 -0.845678 -1.413487
  C 5.622419 -1.757977 -2.245152
  C 7.067606 -2.425805 -0.986166
  C 7.099736 -2.025276 -2.396626
  C 7.977690 -0.894841 -2.932104
  H 3.751702 0.917609 0.139812
  H 3.038193 -1.188967 -1.967816
  H 5.722097 -0.250933 -0.770132
  H 4.997437 -2.358094 -2.892216
  H 7.764001 -1.767609 -0.430687
  H 7.249743 -2.904100 -3.032645
  H 8.058758 -0.084275 -2.208832
  H 7.555149 -0.490320 -3.850312
  H 8.976977 -1.269462 -3.142245
 17
 84.805445
  H 2.001689 0.579581 -0.667100
  C 3.057724 0.373338 -0.641304
  C 3.616489 -0.547484 -1.420081
  C 5.027556 -0.854353 -1.408875
  C 5.589352 -1.770286 -2.197480
  C 7.498254 -2.447858 -0.855637
  C 7.073784 -2.032572 -2.187360
  C 7.841463 -0.891646 -2.896871
  H 3.642551 0.951844 0.055021
  H 3.009124 -1.119548 -2.109845
  H 5.638326 -0.291308 -0.715189
  H 4.979692 -2.343379 -2.882247
  H 8.478810 -2.005518 -0.597863
  H 7.268637 -2.941132 -2.781033
  H 7.955559 -0.046120 -2.221512
  H 7.294662 -0.554571 -3.774886
  H 8.830406 -1.226253 -3.202874
 17
 97.730358
  H 1.932623 0.622565 -0.770892
  C 2.979110 0.390989 -0.672166
  C 3.578828 -0.511994 -1.441372
  C 4.979435 -0.846726 -1.341364
  C 5.585998 -1.744538 -2.118211
  C 7.618846 -2.395913 -0.773766
  C 7.035625 -2.035055 -2.006161
  C 7.814047 -0.950476 -2.969510
  H 3.521816 0.934880 0.083605
  H 3.013730 -1.045097 -2.195959
  H 5.552161 -0.329242 -0.582719
  H 5.029464 -2.283541 -2.874483
  H 8.701034 -2.226457 -0.685971
  H 7.461662 -2.724324 -2.752670
  H 8.032586 -0.077310 -2.356571
  H 7.151937 -0.651668 -3.773889
  H 8.752302 -1.335409 -3.355625
 17
 110.779070
  H 1.839556 0.623121 -0.857982
  C 2.875050 0.386785 -0.684036
  C 3.538861 -0.482155 -1.441290
  C 4.926932 -0.816687 -1.244200
  C 5.597823 -1.685663 -2.008213
  C 7.503836 -2.332908 -0.614025
  C 7.000556 -2.013710 -1.766759
  C 8.002927 -1.062412 -3.267421
  H 3.353073 0.896772 0.136218
  H 3.036173 -0.983146 -2.259515
  H 5.436811 -0.335366 -0.420896
  H 5.089622 -2.174654 -2.832092
  H 8.547757 -2.299479 -0.348034
  H 7.530866 -2.428233 -2.698445
  H 8.245774 -0.217049 -2.648242
  H 7.264032 -0.829278 -4.019087
  H 8.893806 -1.500600 -3.702682
 17
 66.566267
  H 1.710373 0.539287 -0.918014
  C 2.740507 0.341822 -0.676655
  C 3.482719 -0.501350 -1.388918
  C 4.863059 -0.791180 -1.102604
  C 5.606724 -1.641352 -1.825784
  C 7.564344 -2.222070 -0.431880
  C 6.955275 -1.942670 -1.464682
  C 8.086987 -1.196256 -3.415582
  H 3.143690 0.864371 0.170898
  H 3.051467 -1.016014 -2.238034
  H 5.301785 -0.300070 -0.252521
  H 5.162441 -2.141234 -2.681119
  H 8.573133 -2.227160 -0.081658
  H 7.711489 -2.131609 -2.856823
  H 8.360694 -0.360828 -2.801534
  H 7.317256 -0.949407 -4.130082
  H 8.952978 -1.583930 -3.959804
 17
 45.299991
  H 1.677356 0.525526 -1.181373
  C 2.691003 0.350341 -0.861175
  C 3.467154 -0.565375 -1.438139
  C 4.825443 -0.829950 -1.033935
  C 5.614314 -1.712671 -1.648621
  C 7.752513 -2.210497 -0.334785
  C 6.934053 -1.962176 -1.199391
  C 8.073990 -1.163478 -3.618242
  H 3.039234 0.936567 -0.029067
  H 3.096480 -1.137944 -2.278326
  H 5.206204 -0.268979 -0.196825
  H 5.244753 -2.279789 -2.495936
  H 8.726071 -2.231832 0.065036
  H 7.749387 -2.038945 -2.998766
  H 8.387019 -0.309449 -3.024671
  H 7.254953 -0.886293 -4.275155
  H 8.903633 -1.518662 -4.223711
