 26
 0.000000
  C 1.020334 0.111297 0.327482
  C 2.495229 0.127662 0.368591
  C 3.244214 0.604146 1.554647
  C 2.433762 1.086291 2.754425
  C 3.362083 1.537426 3.878217
  C 3.156273 -0.328520 -0.766809
  C 4.539699 -0.393748 -0.930331
  C 5.195485 -0.851938 -2.072391
  C 4.535094 -1.344758 -3.299730
  H 3.454386 -1.325898 -3.252669
  O 6.507294 -0.876465 -2.135613
  H 0.562372 0.477118 1.238066
  H 0.666408 -0.903301 0.139510
  H 0.666681 0.714232 -0.510020
  H 3.904610 1.419595 1.238885
  H 3.904398 -0.203222 1.890863
  H 1.796606 0.283248 3.128511
  H 1.797015 1.925316 2.468927
  H 3.997469 0.719620 4.210763
  H 2.783428 1.880544 4.732164
  H 3.997933 2.357740 3.552787
  H 2.531901 -0.657271 -1.584937
  H 5.157866 -0.062993 -0.106664
  H 4.877809 -2.360229 -3.500010
  H 4.877785 -0.749750 -4.146677
  H 6.963366 -0.554205 -1.334524
 26
 16.523418
  C 0.944103 0.133207 0.381717
  C 2.498731 0.090046 0.275203
  C 3.284999 0.563805 1.454544
  C 2.512533 1.055010 2.676190
  C 3.486984 1.492219 3.765775
  C 2.950783 -0.386310 -0.909809
  C 4.295379 -0.369383 -0.869478
  C 5.139531 -0.807409 -1.961823
  C 4.644973 -1.326361 -3.253568
  H 3.562375 -1.354375 -3.322619
  O 6.474486 -0.766699 -1.864167
  H 0.573737 0.510602 1.321046
  H 0.556157 -0.868450 0.223561
  H 0.556645 0.747599 -0.425297
  H 3.936582 1.387764 1.148717
  H 3.936103 -0.243002 1.803998
  H 1.880689 0.260622 3.073863
  H 1.881612 1.904376 2.413797
  H 4.121762 0.665296 4.076767
  H 2.943307 1.843262 4.639070
  H 4.122652 2.303891 3.418551
  H 2.318649 -0.713232 -1.723024
  H 4.848369 -0.026397 -0.015418
  H 5.049591 -2.327503 -3.412657
  H 5.049331 -0.713378 -4.061025
  H 6.829893 -0.422575 -1.008784
 26
 56.925733
  C 0.983625 0.155561 0.431968
  C 2.586612 0.066145 0.214092
  C 3.335291 0.537329 1.389803
  C 2.543628 1.021474 2.598004
  C 3.511220 1.461907 3.688226
  C 2.844006 -0.418469 -0.991941
  C 4.151521 -0.356760 -0.837964
  C 5.103587 -0.785219 -1.905615
  C 4.684255 -1.311818 -3.212903
  H 3.612088 -1.357273 -3.322749
  O 6.402810 -0.709900 -1.724049
  H 0.666735 0.541855 1.392971
  H 0.581220 -0.837587 0.295504
  H 0.583476 0.779931 -0.353332
  H 3.978787 1.378409 1.118591
  H 3.977134 -0.258312 1.775302
  H 1.914671 0.221764 2.988225
  H 1.912017 1.871906 2.342986
  H 4.151227 0.639643 4.003519
  H 2.961132 1.807825 4.558420
  H 4.141859 2.279182 3.345672
  H 2.179746 -0.736841 -1.786439
  H 4.693478 -0.007964 0.033256
  H 5.111995 -2.306129 -3.352967
  H 5.110293 -0.691396 -4.003142
  H 6.687573 -0.358746 -0.855348
 26
 105.908509
  C 0.917122 0.152807 0.420161
  C 2.633508 0.043587 0.156738
  C 3.337833 0.533092 1.375150
  C 2.567461 1.026780 2.615105
  C 3.577095 1.457386 3.681937
  C 2.765958 -0.447786 -1.062106
  C 4.049731 -0.342860 -0.804776
  C 5.106873 -0.775249 -1.882774
  C 4.733718 -1.306868 -3.198993
  H 3.658399 -1.364637 -3.337106
  O 6.379361 -0.675910 -1.642589
  H 0.601324 0.534475 1.366225
  H 0.539297 -0.856807 0.281572
  H 0.542259 0.786584 -0.379463
  H 3.975418 1.379424 1.089698
  H 3.977909 -0.273821 1.754086
  H 1.946947 0.234423 3.029554
  H 1.940872 1.883164 2.373233
  H 4.214943 0.628747 3.978985
  H 3.056233 1.810033 4.568163
  H 4.206331 2.267315 3.321111
  H 2.100189 -0.756932 -1.831662
  H 4.638216 -0.013638 0.018747
  H 5.174814 -2.294202 -3.328853
  H 5.171892 -0.685067 -3.978436
  H 6.624506 -0.324436 -0.770516
 26
 153.654971
  C 0.859329 0.162202 0.441730
  C 2.711655 0.028191 0.129670
  C 3.363644 0.533439 1.383072
  C 2.581123 1.023119 2.598112
  C 3.577047 1.454383 3.671376
  C 2.730886 -0.474291 -1.103149
  C 4.007042 -0.331407 -0.771473
  C 5.125399 -0.777843 -1.896241
  C 4.750541 -1.304509 -3.203937
  H 3.684704 -1.357468 -3.329220
  O 6.393936 -0.672256 -1.637222
  H 0.548518 0.545300 1.392701
  H 0.511004 -0.844038 0.302208
  H 0.513619 0.793553 -0.355350
  H 4.004399 1.382445 1.108389
  H 4.005696 -0.268456 1.773966
  H 1.955302 0.230075 3.009981
  H 1.956224 1.879962 2.342851
  H 4.211473 0.622022 3.978112
  H 3.044421 1.809552 4.551233
  H 4.213057 2.265111 3.316236
  H 2.047575 -0.774998 -1.847893
  H 4.682636 -0.022029 0.014585
  H 5.189027 -2.297879 -3.339756
  H 5.184943 -0.679453 -3.989838
  H 6.629834 -0.315403 -0.751415
 26
 135.822319
  C 0.401319 0.270210 0.522820
  C 3.305594 0.041969 0.197456
  C 3.700128 0.548258 1.494697
  C 2.609807 0.967245 2.483095
  C 3.274549 1.492999 3.754107
  C 2.979037 -0.545010 -0.862022
  C 4.530863 -0.374920 -0.836170
  C 5.185993 -0.780165 -1.966762
  C 4.574467 -1.267074 -3.237876
  H 3.493997 -1.252184 -3.225211
  O 6.526254 -0.829980 -2.023064
  H 0.072723 0.682169 1.454186
  H 0.283595 -0.787897 0.407217
  H 0.257532 0.886802 -0.341580
  H 4.313120 1.440167 1.314739
  H 4.340176 -0.196060 1.978872
  H 1.983984 0.118614 2.752116
  H 1.997208 1.756987 2.054586
  H 3.888734 0.727605 4.221891
  H 2.517256 1.798780 4.470653
  H 3.902638 2.354768 3.541203
  H 2.219197 -0.878502 -1.519970
  H 5.320648 -0.137578 -0.131111
  H 4.918980 -2.279744 -3.436291
  H 4.924535 -0.642556 -4.057839
  H 7.001934 -0.512427 -1.239135
 26
 107.970486
  C 0.431847 0.206011 0.403210
  C 3.417002 0.097075 0.517796
  C 3.755380 0.649058 1.779718
  C 2.529403 1.027544 2.642277
  C 2.989895 1.629515 3.966140
  C 3.443894 -0.471849 -0.624126
  C 4.851382 -0.525391 -1.022214
  C 5.239591 -0.925917 -2.246575
  C 4.366207 -1.263656 -3.404162
  H 3.309397 -1.141977 -3.199915
  O 6.539904 -1.072782 -2.544646
  H -0.040384 0.611127 1.274354
  H 0.497631 -0.857683 0.300241
  H 0.528553 0.826017 -0.464366
  H 4.326266 1.575833 1.630880
  H 4.343239 -0.072750 2.360431
  H 1.940443 0.129459 2.817365
  H 1.909549 1.764807 2.133849
  H 3.597780 0.924610 4.528271
  H 2.120798 1.880625 4.568486
  H 3.563904 2.537440 3.801789
  H 2.694202 -0.796116 -1.310944
  H 5.658660 -0.356926 -0.331254
  H 4.563450 -2.289188 -3.710709
  H 4.638514 -0.626344 -4.244096
  H 7.141118 -0.827832 -1.824766
