 26
 0.000000
  C 0.965877 0.141080 0.403861
  C 2.441623 0.138113 0.395483
  C 3.232810 0.606037 1.558897
  C 2.460161 1.096122 2.778561
  H 3.141900 1.409448 3.557669
  C 3.054544 -0.327250 -0.762677
  C 4.432021 -0.411401 -0.972891
  C 5.115537 -0.861635 -2.095707
  C 4.625403 -1.384463 -3.399875
  C 3.136770 -1.502435 -3.695146
  H 2.988915 -1.901172 -4.689836
  O 6.437800 -0.854875 -2.078898
  H 0.536942 0.512212 1.327187
  H 0.592714 -0.870148 0.236709
  H 0.592179 0.754961 -0.416679
  H 3.889306 1.416062 1.222017
  H 3.889761 -0.211447 1.876296
  H 1.825925 0.304117 3.173219
  H 1.825556 1.940701 2.515393
  H 2.395585 -0.644658 -1.552315
  H 5.050351 -0.079741 -0.147022
  H 5.084782 -2.371645 -3.523785
  H 5.085270 -0.756627 -4.171435
  H 2.658311 -0.526547 -3.648118
  H 2.657855 -2.175339 -2.987116
  H 6.812991 -0.520362 -1.242733
 26
 9.130527
  C 0.949364 0.151453 0.429084
  C 2.426205 0.151042 0.427720
  C 3.212338 0.620850 1.596219
  C 2.430642 1.108827 2.810463
  H 3.113629 1.423231 3.592665
  C 3.047476 -0.313743 -0.728871
  C 4.414807 -0.392059 -0.924525
  C 5.170998 -0.895009 -2.179128
  C 4.655562 -1.410984 -3.466040
  C 3.158629 -1.512537 -3.719719
  H 2.985510 -1.911090 -4.713913
  O 6.477938 -0.884097 -2.152609
  H 0.517489 0.522054 1.350916
  H 0.578594 -0.859987 0.257962
  H 0.578360 0.762891 -0.394491
  H 3.869399 1.431775 1.262846
  H 3.869587 -0.195053 1.916798
  H 1.797983 0.317493 3.206647
  H 1.797910 1.954211 2.548862
  H 2.393818 -0.633173 -1.523719
  H 5.042255 -0.064758 -0.109595
  H 5.105718 -2.401574 -3.598944
  H 5.105948 -0.786779 -4.246523
  H 2.689792 -0.533727 -3.663379
  H 2.689613 -2.181287 -3.002885
  H 6.855165 -0.549288 -1.315851
 26
 27.494132
  C 0.942729 0.157075 0.438873
  C 2.415768 0.158522 0.444409
  C 3.196977 0.626958 1.613061
  C 2.405495 1.111939 2.821488
  H 3.095942 1.426052 3.605787
  C 3.043263 -0.301547 -0.701577
  C 4.400450 -0.368506 -0.868038
  C 5.224555 -0.925381 -2.256751
  C 4.669256 -1.430525 -3.514167
  C 3.169163 -1.513582 -3.717798
  H 2.973302 -1.913334 -4.713234
  O 6.500200 -0.891809 -2.175673
  H 0.511546 0.527142 1.360397
  H 0.573903 -0.853311 0.260595
  H 0.574798 0.764420 -0.388459
  H 3.853570 1.439564 1.286810
  H 3.852764 -0.186364 1.938977
  H 1.777179 0.322512 3.225117
  H 1.778139 1.962110 2.567708
  H 2.398512 -0.620058 -1.495529
  H 5.078067 -0.057281 -0.092780
  H 5.106559 -2.424493 -3.664704
  H 5.105358 -0.816197 -4.310448
  H 2.709827 -0.532046 -3.658931
  H 2.711274 -2.182821 -2.996262
  H 6.861769 -0.556965 -1.340354
 26
 48.643392
  C 0.907279 0.174086 0.480974
  C 2.390581 0.177237 0.491319
  C 3.172977 0.649669 1.670029
  C 2.377932 1.134697 2.878137
  H 3.065308 1.448417 3.661567
  C 3.032731 -0.288702 -0.669045
  C 4.377736 -0.352506 -0.827474
  C 5.273915 -0.962085 -2.348266
  C 4.707285 -1.462573 -3.594127
  C 3.199179 -1.537259 -3.776307
  H 2.986829 -1.934893 -4.766568
  O 6.557796 -0.926011 -2.261556
  H 0.473635 0.543962 1.401816
  H 0.538643 -0.837563 0.301742
  H 0.539796 0.781766 -0.347988
  H 3.830559 1.463593 1.344547
  H 3.829610 -0.164196 1.997547
  H 1.749673 0.344938 3.281999
  H 1.750806 1.985433 2.624150
  H 2.386016 -0.611426 -1.473838
  H 5.070077 -0.048061 -0.068736
  H 5.140870 -2.459706 -3.748923
  H 5.139420 -0.848572 -4.395689
  H 2.746019 -0.553053 -3.710385
  H 2.747827 -2.203685 -3.047986
  H 6.928211 -0.587298 -1.416676
 26
 69.461615
  C 0.900955 0.184143 0.504928
  C 2.374415 0.190082 0.522663
  C 3.148985 0.659766 1.695560
  C 2.348315 1.142109 2.897686
  H 3.032713 1.456431 3.683367
  C 3.015871 -0.268206 -0.619102
  C 4.364862 -0.327179 -0.765118
  C 5.324928 -0.991440 -2.421950
  C 4.730500 -1.487596 -3.656260
  C 3.220226 -1.546623 -3.798330
  H 2.978408 -1.942007 -4.782402
  O 6.588909 -0.949246 -2.320312
  H 0.466481 0.553417 1.424799
  H 0.534774 -0.827110 0.324443
  H 0.536169 0.791164 -0.324381
  H 3.805979 1.473640 1.371773
  H 3.804849 -0.153139 2.023900
  H 1.719807 0.351417 3.299920
  H 1.721115 1.992603 2.642295
  H 2.377408 -0.588903 -1.419282
  H 5.087599 -0.031721 -0.028471
  H 5.153078 -2.488360 -3.820418
  H 5.151205 -0.877467 -4.467221
  H 2.779434 -0.557888 -3.720168
  H 2.781702 -2.207940 -3.057690
  H 6.953139 -0.614394 -1.485307
 26
 87.179918
  C 0.892413 0.177855 0.488949
  C 2.372091 0.198506 0.543228
  C 3.126269 0.675708 1.735209
  C 2.296515 1.150978 2.920499
  H 2.961338 1.469386 3.716541
  C 3.054052 -0.258461 -0.595626
  C 4.386897 -0.304635 -0.709386
  C 5.388370 -1.027982 -2.513048
  C 4.736150 -1.509771 -3.711333
  C 3.214325 -1.527870 -3.750992
  H 2.895650 -1.914371 -4.712614
  O 6.646168 -0.984262 -2.407634
  H 0.436696 0.543536 1.400478
  H 0.537269 -0.836931 0.302229
  H 0.538542 0.783330 -0.347079
  H 3.782149 1.496285 1.422871
  H 3.781229 -0.134126 2.076138
  H 1.669072 0.354035 3.313068
  H 1.670140 1.999332 2.654159
  H 2.431855 -0.586990 -1.415724
  H 5.159042 -0.031188 -0.026914
  H 5.128617 -2.520218 -3.901679
  H 5.126667 -0.910659 -4.547918
  H 2.807438 -0.526790 -3.646223
  H 2.810021 -2.179599 -2.982647
  H 7.026668 -0.647811 -1.568468
 26
 102.362224
  C 0.870111 0.189116 0.518190
  C 2.350819 0.214653 0.584375
  C 3.099724 0.694231 1.781115
  C 2.261940 1.168562 2.963200
  H 2.925019 1.490477 3.767103
  C 3.043918 -0.240072 -0.548288
  C 4.373462 -0.281992 -0.651481
  C 5.431748 -1.060801 -2.594405
  C 4.760746 -1.538642 -3.783747
  C 3.241736 -1.542839 -3.789380
  H 2.893731 -1.927701 -4.747614
  O 6.690213 -1.017449 -2.489673
  H 0.408448 0.554037 1.427205
  H 0.518176 -0.826857 0.330417
  H 0.519333 0.794256 -0.319708
  H 3.755728 1.515564 1.471414
  H 3.755007 -0.113991 2.124888
  H 1.634308 0.370873 3.352067
  H 1.635256 2.014591 2.693196
  H 2.430286 -0.569222 -1.369876
  H 5.167552 -0.017809 0.008074
  H 5.141372 -2.551104 -3.980005
  H 5.139600 -0.941924 -4.625615
  H 2.849107 -0.538683 -3.672328
  H 2.851365 -2.188588 -3.010296
  H 7.074948 -0.682905 -1.654450
 26
 114.694619
  C 0.853808 0.204854 0.558847
  C 2.329434 0.235355 0.637235
  C 3.066446 0.716154 1.835511
  C 2.218210 1.187716 3.009312
  H 2.870509 1.510790 3.814993
  C 3.039343 -0.220253 -0.496685
  C 4.366518 -0.259846 -0.594057
  C 5.475770 -1.094939 -2.678890
  C 4.790086 -1.570432 -3.863646
  C 3.268522 -1.561216 -3.836469
  H 2.895040 -1.940605 -4.782051
  O 6.731358 -1.056918 -2.587401
  H 0.384654 0.568896 1.464725
  H 0.506633 -0.811985 0.369563
  H 0.507738 0.808941 -0.281166
  H 3.722260 1.538658 1.529874
  H 3.721664 -0.089734 2.183659
  H 1.589925 0.387699 3.393153
  H 1.590777 2.031722 2.733330
  H 2.429970 -0.552286 -1.325217
  H 5.178676 -0.003550 0.046147
  H 5.160462 -2.586473 -4.065701
  H 5.158938 -0.974666 -4.711809
  H 2.888646 -0.552484 -3.707792
  H 2.890644 -2.202548 -3.046404
  H 7.124789 -0.722982 -1.753023
 26
 122.547343
  C 0.841875 0.221276 0.600982
  C 2.308567 0.257272 0.692417
  C 3.030147 0.739142 1.892258
  C 2.171384 1.208991 3.061404
  H 2.817951 1.534902 3.873337
  C 3.031864 -0.197048 -0.437915
  C 4.350486 -0.236419 -0.534775
  C 5.512093 -1.127931 -2.760507
  C 4.817186 -1.604127 -3.947815
  C 3.298079 -1.582053 -3.889725
  H 2.897945 -1.958363 -4.828150
  O 6.784292 -1.099786 -2.693323
  H 0.360314 0.583458 1.501828
  H 0.502522 -0.797254 0.407268
  H 0.503342 0.823023 -0.243610
  H 3.686265 1.562238 1.590320
  H 3.685980 -0.064233 2.243746
  H 1.542800 0.406948 3.440668
  H 1.543412 2.050936 2.780428
  H 2.429180 -0.530970 -1.270851
  H 5.165765 0.018914 0.103301
  H 5.176787 -2.622164 -4.153656
  H 5.175689 -1.009549 -4.799928
  H 2.932104 -0.570224 -3.749755
  H 2.933466 -2.217786 -3.089503
  H 7.184455 -0.768041 -1.863881
 26
 127.451393
  C 0.814067 0.242158 0.655166
  C 2.278179 0.282515 0.755913
  C 2.988360 0.766448 1.959071
  C 2.124013 1.234850 3.124585
  H 2.765455 1.561752 3.937609
  C 3.016362 -0.173954 -0.379468
  C 4.348866 -0.215585 -0.482203
  C 5.557542 -1.164588 -2.850945
  C 4.855991 -1.640499 -4.038788
  C 3.337166 -1.605825 -3.951217
  H 2.913079 -1.977667 -4.879262
  O 6.827491 -1.150640 -2.817837
  H 0.320952 0.602502 1.551093
  H 0.481592 -0.778189 0.456372
  H 0.481715 0.840886 -0.194638
  H 3.645407 1.589783 1.659341
  H 3.645874 -0.034862 2.312578
  H 1.495957 0.431746 3.501437
  H 1.495805 2.075294 2.840824
  H 2.415670 -0.510572 -1.218345
  H 5.162979 0.040633 0.158141
  H 5.205436 -2.661153 -4.247774
  H 5.205132 -1.046351 -4.894746
  H 2.984340 -0.590215 -3.800816
  H 2.984822 -2.236852 -3.141207
  H 7.238417 -0.820681 -1.991260
 26
 130.664319
  C 0.804464 0.258426 0.698074
  C 2.260542 0.303068 0.807808
  C 2.957670 0.787683 2.010547
  C 2.087390 1.254624 3.172330
  H 2.725080 1.583394 3.988390
  C 2.999420 -0.147012 -0.311255
  C 4.309967 -0.187970 -0.412628
  C 5.583661 -1.191251 -2.916382
  C 4.879055 -1.670925 -4.115148
  C 3.360717 -1.629598 -4.013063
  H 2.922416 -1.999065 -4.936222
  O 6.880673 -1.187954 -2.908301
  H 0.300427 0.616769 1.588561
  H 0.479548 -0.763103 0.493913
  H 0.478928 0.853339 -0.156794
  H 3.615678 1.610723 1.712654
  H 3.616967 -0.011292 2.365502
  H 1.459434 0.449942 3.546877
  H 1.458475 2.093851 2.885447
  H 2.406706 -0.484533 -1.151505
  H 5.115042 0.073158 0.240024
  H 5.222537 -2.692790 -4.324603
  H 5.223101 -1.076297 -4.971982
  H 3.016211 -0.612336 -3.856082
  H 3.015710 -2.257245 -3.197474
  H 7.298902 -0.859715 -2.084257
 26
 132.241446
  C 0.784197 0.271404 0.739220
  C 2.236948 0.326800 0.868566
  C 2.908124 0.818592 2.081663
  C 2.022879 1.280630 3.232762
  H 2.650808 1.614344 4.055323
  C 3.001298 -0.120962 -0.244111
  C 4.325321 -0.161200 -0.345503
  C 5.633677 -1.225420 -2.996788
  C 4.906515 -1.702700 -4.195445
  C 3.392527 -1.638650 -4.045310
  H 2.912022 -1.999267 -4.950357
  O 6.918353 -1.260886 -3.078254
  H 0.255697 0.624734 1.616460
  H 0.476186 -0.752923 0.517409
  H 0.472402 0.852669 -0.131435
  H 3.571539 1.640614 1.788563
  H 3.576390 0.026994 2.439940
  H 1.396111 0.472561 3.602656
  H 1.391513 2.116044 2.939491
  H 2.423093 -0.463553 -1.093414
  H 5.114086 0.108356 0.327659
  H 5.228892 -2.727629 -4.407980
  H 5.233109 -1.108618 -5.055689
  H 3.075149 -0.615318 -3.870701
  H 3.070790 -2.258074 -3.213849
  H 7.373058 -0.943368 -2.276372
 26
 133.577695
  C 0.763348 0.294218 0.795008
  C 2.209205 0.350314 0.928054
  C 2.871997 0.841522 2.139221
  C 1.981750 1.302542 3.285508
  H 2.605365 1.637271 4.110504
  C 2.977581 -0.097456 -0.182952
  C 4.306900 -0.137628 -0.283607
  C 5.668753 -1.256831 -3.075234
  C 4.933132 -1.730873 -4.266640
  C 3.420454 -1.660851 -4.100346
  H 2.927702 -2.019565 -5.001394
  O 6.957918 -1.298089 -3.172869
  H 0.231214 0.647536 1.670591
  H 0.457594 -0.730150 0.570994
  H 0.454739 0.873767 -0.077836
  H 3.535956 1.662818 1.848433
  H 3.540102 0.051757 2.499465
  H 1.355116 0.494737 3.652434
  H 1.351308 2.136089 2.989418
  H 2.399500 -0.441912 -1.037683
  H 5.092946 0.132088 0.390375
  H 5.250636 -2.758590 -4.481745
  H 5.254381 -1.135728 -5.130295
  H 3.109444 -0.636278 -3.921122
  H 3.105512 -2.278749 -3.265145
  H 7.423897 -0.978795 -2.369081
 26
 134.600400
  C 0.731157 0.316128 0.848639
  C 2.180227 0.374324 0.988117
  C 2.839294 0.867654 2.204272
  C 1.945374 1.328662 3.349235
  H 2.566576 1.663827 4.175353
  C 2.954357 -0.073050 -0.120816
  C 4.282008 -0.112129 -0.218409
  C 5.704822 -1.285513 -3.147020
  C 4.960655 -1.759860 -4.339752
  C 3.449098 -1.686633 -4.164778
  H 2.950597 -2.043397 -5.061519
  O 6.993716 -1.331399 -3.257271
  H 0.193672 0.668585 1.721078
  H 0.427862 -0.708946 0.621530
  H 0.425633 0.893863 -0.027195
  H 3.504922 1.689337 1.915102
  H 3.508606 0.078566 2.566379
  H 1.317878 0.519829 3.715392
  H 1.314602 2.162610 3.051432
  H 2.381856 -0.417193 -0.975040
  H 5.067444 0.158977 0.459351
  H 5.274459 -2.787636 -4.556327
  H 5.277957 -1.165153 -5.204245
  H 3.141733 -0.661365 -3.982903
  H 3.138020 -2.303753 -3.327477
  H 7.461807 -1.015263 -2.462955
