 14
 0.000000
  H 1.434562 -0.075396 0.040048
  C 2.507610 -0.083659 0.023827
  C 3.217146 -0.595340 -0.980694
  C 4.655200 -0.607695 -1.004945
  C 5.376915 -1.122736 -2.016058
  C 6.815360 -1.132519 -2.035264
  C 7.531911 -1.642107 -3.035672
  H 8.604737 -1.654594 -3.060178
  H 3.007772 0.350759 0.876665
  H 2.704128 -1.028095 -1.830255
  H 5.160079 -0.173058 -0.151685
  H 4.873673 -1.557702 -2.869967
  H 7.320568 -0.697832 -1.181900
  H 7.035543 -2.077831 -3.891057
 14
 0.948855
  H 1.441113 -0.226497 0.054589
  C 2.516857 -0.152990 0.043530
  C 3.242772 -0.549899 -0.998446
  C 4.682582 -0.501863 -1.036386
  C 5.404647 -0.876850 -2.102357
  C 6.839462 -0.978499 -2.106578
  C 7.495729 -1.731171 -2.982302
  H 8.557894 -1.884961 -2.948236
  H 2.981096 0.258222 0.925065
  H 2.755224 -0.961318 -1.875306
  H 5.184283 -0.169185 -0.134433
  H 4.896500 -1.207792 -3.001427
  H 7.370690 -0.453730 -1.325070
  H 6.962612 -2.267047 -3.750649
 14
 3.614024
  H 1.460651 -0.365013 0.054281
  C 2.531770 -0.260607 0.049822
  C 3.265880 -0.544945 -1.022971
  C 4.703799 -0.468693 -1.054614
  C 5.425710 -0.702391 -2.157809
  C 6.866827 -0.868296 -2.158829
  C 7.430677 -1.830713 -2.877212
  H 8.474639 -2.088843 -2.847571
  H 2.984273 0.088631 0.963593
  H 2.787883 -0.892657 -1.930139
  H 5.201759 -0.255358 -0.117297
  H 4.918460 -0.914229 -3.091196
  H 7.450433 -0.234783 -1.504354
  H 6.817313 -2.462150 -3.501996
 14
 6.504427
  H 1.487255 -0.436100 0.042554
  C 2.559934 -0.347993 0.043762
  C 3.284666 -0.521712 -1.057612
  C 4.725754 -0.468763 -1.087249
  C 5.442174 -0.562727 -2.210420
  C 6.890005 -0.775731 -2.223377
  C 7.367682 -1.893063 -2.745964
  H 8.395989 -2.209212 -2.733445
  H 3.020779 -0.106881 0.987811
  H 2.798229 -0.761610 -1.994743
  H 5.228773 -0.397640 -0.131152
  H 4.936196 -0.629983 -3.166046
  H 7.528148 -0.041295 -1.750882
  H 6.683462 -2.604011 -3.185812
 14
 8.326203
  H 1.507116 -0.505336 0.040436
  C 2.582232 -0.452939 0.037539
  C 3.290119 -0.525254 -1.085291
  C 4.733634 -0.520474 -1.124161
  C 5.447892 -0.475631 -2.248915
  C 6.896441 -0.736704 -2.281700
  C 7.299017 -1.956672 -2.585459
  H 8.311677 -2.320293 -2.602217
  H 3.058870 -0.332825 0.996781
  H 2.788054 -0.643359 -2.037335
  H 5.241276 -0.603843 -0.171364
  H 4.949424 -0.378321 -3.206209
  H 7.583012 0.058389 -2.024100
  H 6.556350 -2.704567 -2.825191
 14
 7.638369
  H 1.509123 -0.424391 -0.008860
  C 2.582041 -0.508270 -0.008399
  C 3.294067 -0.463151 -1.128190
  C 4.730018 -0.610272 -1.170837
  C 5.477270 -0.394342 -2.253993
  C 6.909159 -0.730550 -2.306798
  C 7.259191 -1.995511 -2.443452
  H 8.260397 -2.386934 -2.492296
  H 3.053140 -0.628483 0.953509
  H 2.799820 -0.338937 -2.083304
  H 5.205875 -0.937970 -0.255134
  H 5.024161 -0.042826 -3.173950
  H 7.633716 0.068847 -2.227052
  H 6.482925 -2.742541 -2.528555
 14
 6.368127
  H 1.511223 -0.480764 -0.089803
  C 2.580880 -0.600887 -0.085837
  C 3.317514 -0.405303 -1.174128
  C 4.741865 -0.628197 -1.228747
  C 5.531497 -0.280023 -2.246107
  C 6.921818 -0.727023 -2.333584
  C 7.180894 -2.023532 -2.269147
  H 8.143369 -2.495920 -2.363926
  H 3.028747 -0.880413 0.853861
  H 2.843980 -0.116364 -2.104229
  H 5.176768 -1.141992 -0.380776
  H 5.138235 0.281675 -3.084257
  H 7.698902 0.013297 -2.469071
  H 6.354209 -2.713415 -2.182156
 14
 9.318375
  H 1.533328 -0.705981 -0.208064
  C 2.609064 -0.716421 -0.173209
  C 3.354934 -0.396311 -1.229520
  C 4.781130 -0.551421 -1.266446
  C 5.600247 -0.151337 -2.254624
  C 6.918439 -0.746366 -2.356429
  C 7.029824 -2.048276 -2.106580
  H 7.956351 -2.596696 -2.071608
  H 3.056195 -0.990611 0.768430
  H 2.870617 -0.121687 -2.158758
  H 5.218330 -1.039909 -0.404375
  H 5.278081 0.566710 -2.996937
  H 7.767120 -0.141327 -2.644771
  H 6.137952 -2.652686 -2.068789
 14
 19.407929
  H 1.588380 -0.893759 -0.298441
  C 2.660098 -0.810861 -0.245969
  C 3.397158 -0.452612 -1.299811
  C 4.823115 -0.487888 -1.302159
  C 5.652495 -0.065042 -2.291378
  C 6.907852 -0.758594 -2.350578
  C 6.858904 -2.042680 -1.963256
  H 7.731221 -2.632752 -1.725985
  H 3.112969 -1.028490 0.707579
  H 2.904736 -0.247819 -2.242878
  H 5.271917 -0.825064 -0.376429
  H 5.364808 0.696980 -3.001278
  H 7.825609 -0.282983 -2.668105
  H 5.946156 -2.597780 -2.089896
 14
 32.312146
  H 1.654823 -1.027896 -0.350567
  C 2.722038 -0.901937 -0.292674
  C 3.455847 -0.547741 -1.352436
  C 4.876589 -0.473923 -1.331677
  C 5.685751 -0.015527 -2.354812
  C 6.883983 -0.757088 -2.373404
  C 6.688160 -1.990543 -1.820893
  H 7.490483 -2.570412 -1.381530
  H 3.175601 -1.076224 0.669385
  H 2.970925 -0.397044 -2.309746
  H 5.326376 -0.631434 -0.361488
  H 5.384651 0.746120 -3.057392
  H 7.848147 -0.402909 -2.709595
  H 5.809845 -2.555873 -2.070341
 14
 39.890282
  H 1.734502 -1.167307 -0.375511
  C 2.796997 -1.005606 -0.314666
  C 3.524859 -0.661617 -1.376455
  C 4.958801 -0.496035 -1.350125
  C 5.720798 0.016370 -2.439614
  C 6.858561 -0.744108 -2.428549
  C 6.494811 -1.893238 -1.693960
  H 7.202982 -2.424712 -1.066672
  H 3.247971 -1.134841 0.656305
  H 3.047779 -0.557322 -2.343015
  H 5.400247 -0.487542 -0.364747
  H 5.384877 0.763864 -3.138530
  H 7.853916 -0.506948 -2.767624
  H 5.674038 -2.503867 -2.027069
 14
 29.678190
  H 1.821690 -1.284766 -0.390787
  C 2.876461 -1.082294 -0.316874
  C 3.607673 -0.756359 -1.373647
  C 5.070323 -0.525592 -1.347609
  C 5.758275 0.050371 -2.508888
  C 6.847142 -0.742156 -2.498845
  C 6.308208 -1.796412 -1.636415
  H 6.935622 -2.290944 -0.899810
  H 3.309915 -1.151898 0.668080
  H 3.151775 -0.712630 -2.354382
  H 5.494021 -0.366978 -0.360941
  H 5.392488 0.789464 -3.199556
  H 7.857965 -0.597749 -2.835605
  H 5.551868 -2.458879 -2.039926
 14
 12.521970
  H 1.871020 -1.368579 -0.381857
  C 2.913918 -1.115352 -0.298929
  C 3.660398 -0.858655 -1.357541
  C 5.113519 -0.553236 -1.316889
  C 5.777774 0.097821 -2.494100
  C 6.789460 -0.776025 -2.556094
  C 6.171389 -1.736287 -1.594857
  H 6.765748 -2.181006 -0.799871
  H 3.314148 -1.060530 0.700814
  H 3.240575 -0.932187 -2.352890
  H 5.459272 -0.200587 -0.344928
  H 5.423781 0.880373 -3.140327
  H 7.788933 -0.729159 -2.948253
  H 5.545348 -2.493642 -2.065461
 14
 11.520316
  H 1.932262 -1.391892 -0.292278
  C 2.935286 -1.011416 -0.251272
  C 3.721010 -0.982429 -1.314318
  C 5.132093 -0.546162 -1.292093
  C 5.777827 0.126812 -2.477687
  C 6.703262 -0.824630 -2.647020
  C 6.122292 -1.731228 -1.603914
  H 6.741964 -2.168309 -0.819366
  H 3.259886 -0.626728 0.704590
  H 3.362672 -1.382640 -2.252936
  H 5.446011 -0.146979 -0.326701
  H 5.376672 0.910734 -3.090996
  H 7.703656 -0.840758 -3.051482
  H 5.530006 -2.527871 -2.060630
 14
 3.156758
  H 1.830964 -1.209227 -0.442697
  C 2.861505 -0.918682 -0.329295
  C 3.744124 -1.070937 -1.300045
  C 5.176603 -0.681659 -1.196675
  C 5.740026 0.104556 -2.360586
  C 6.626209 -0.826419 -2.693688
  C 6.213193 -1.775351 -1.605348
  H 6.963451 -1.997840 -0.848427
  H 3.134796 -0.496026 0.624161
  H 3.446966 -1.494627 -2.250760
  H 5.383121 -0.234328 -0.221899
  H 5.473870 1.071203 -2.747510
  H 7.384248 -0.907837 -3.452207
  H 5.765823 -2.706323 -1.951127
