10

H 3.5871812416732967 -0.5980687762732009 -0.986048897132666
C 4.657036 -0.606072 -1.001757
C 5.377062 -1.121409 -2.013449
C 6.816125 -1.130354 -2.03101
C 7.533923 -1.642278 -3.03601
H 8.603485343461157 -1.6561704521750242 -3.063275238352905
H 5.162852 -0.171399 -0.148426
H 4.873487 -1.556544 -2.867691
H 7.324761 -0.695847 -1.177999
H 7.034918 -2.078564 -3.892496
