 29
 0.000000
  C 0.973890 0.134615 0.393505
  C 2.450772 0.141270 0.393843
  C 3.232275 0.611453 1.563738
  C 2.453696 1.098155 2.782646
  C 3.403211 1.544111 3.890152
  C 3.075578 -0.321356 -0.758103
  C 4.454033 -0.409407 -0.968449
  C 5.122278 -0.864844 -2.097890
  C 4.621465 -1.385902 -3.398864
  C 3.131325 -1.499119 -3.691855
  H 2.975847 -1.896917 -4.683759
  O 6.445088 -0.866513 -2.092868
  H 0.538358 0.496155 1.317883
  H 0.609743 -0.879234 0.222303
  H 0.591069 0.751797 -0.421064
  H 3.887118 1.424905 1.231473
  H 3.890781 -0.203773 1.884021
  H 1.817832 0.299416 3.169144
  H 1.814060 1.940206 2.511522
  H 4.040856 0.723573 4.212102
  H 2.838182 1.888531 4.752924
  H 4.037119 2.362412 3.555362
  H 2.421455 -0.640367 -1.551402
  H 5.077351 -0.078717 -0.146158
  H 5.074842 -2.375629 -3.524493
  H 5.079684 -0.760357 -4.173255
  H 2.657783 -0.520071 -3.641752
  H 2.652884 -2.169248 -2.979614
  H 6.825807 -0.533267 -1.258951
 29
 0.174533
  C 0.972373 0.550879 0.261267
  C 2.429583 0.330238 0.308467
  C 3.212874 0.542714 1.548496
  C 2.458200 1.016261 2.787449
  C 3.409786 1.150695 3.972499
  C 3.036807 -0.125920 -0.856736
  C 4.410059 -0.143564 -1.089224
  C 5.098842 -0.620005 -2.199754
  C 4.636020 -1.484677 -3.321064
  C 3.186346 -1.928090 -3.409192
  H 3.090347 -2.620141 -4.241895
  O 6.385939 -0.356132 -2.318167
  H 0.600081 1.090492 1.122066
  H 0.453387 -0.408463 0.209595
  H 0.710057 1.090189 -0.647568
  H 4.014714 1.260423 1.340852
  H 3.721204 -0.396966 1.793067
  H 1.674203 0.303726 3.046863
  H 1.994881 1.986320 2.600887
  H 3.874213 0.196342 4.208921
  H 2.871375 1.488829 4.853853
  H 4.194957 1.872817 3.762164
  H 2.374794 -0.433491 -1.647053
  H 5.029605 0.343485 -0.344333
  H 5.278314 -2.372223 -3.281755
  H 4.921241 -0.976560 -4.248074
  H 2.524528 -1.092233 -3.608135
  H 2.873819 -2.446340 -2.509588
  H 6.758333 0.192720 -1.603380
 29
 3.951838
  C 1.027543 0.882514 0.163023
  C 2.412404 0.396330 0.279274
  C 3.161577 0.428505 1.554146
  C 2.476679 1.066548 2.758950
  C 3.370311 0.974420 3.992072
  C 3.001997 -0.121247 -0.872580
  C 4.339446 0.034839 -1.209587
  C 5.027105 -0.424107 -2.324087
  C 4.647279 -1.467982 -3.315782
  C 3.288888 -2.145174 -3.228058
  H 3.237614 -2.913056 -3.996496
  O 6.229805 0.056839 -2.585959
  H 0.740291 1.507844 1.000192
  H 0.323618 0.050548 0.102236
  H 0.937205 1.444877 -0.763705
  H 4.127902 0.920493 1.393725
  H 3.419889 -0.607191 1.806139
  H 1.534869 0.558726 2.970527
  H 2.264285 2.118033 2.557586
  H 3.582560 -0.062739 4.241970
  H 2.882208 1.432897 4.848512
  H 4.314844 1.488768 3.829117
  H 2.333114 -0.584292 -1.582001
  H 4.906642 0.703424 -0.570397
  H 5.433015 -2.229423 -3.247842
  H 4.772769 -1.023514 -4.308589
  H 2.481049 -1.445319 -3.419955
  H 3.146114 -2.627182 -2.265334
  H 6.542415 0.737011 -1.957460
 29
 11.393241
  C 1.147141 1.122644 0.115828
  C 2.430588 0.424386 0.297402
  C 3.125998 0.323138 1.594135
  C 2.497484 1.041576 2.784154
  C 3.310941 0.789897 4.050029
  C 2.996152 -0.178901 -0.843911
  C 4.255169 0.133790 -1.312589
  C 4.947942 -0.343884 -2.419436
  C 4.657387 -1.510819 -3.299491
  C 3.403167 -2.338703 -3.069671
  H 3.392091 -3.152595 -3.790647
  O 6.057825 0.266673 -2.801497
  H 0.963197 1.839669 0.907886
  H 0.305598 0.427355 0.094684
  H 1.185239 1.626645 -0.848411
  H 4.164389 0.657763 1.472793
  H 3.213591 -0.744425 1.829126
  H 1.479239 0.684893 2.943408
  H 2.461136 2.116445 2.598557
  H 3.346345 -0.271469 4.285286
  H 2.864507 1.306501 4.896006
  H 4.330919 1.150243 3.936381
  H 2.356738 -0.848741 -1.398677
  H 4.746897 0.948208 -0.789637
  H 5.537812 -2.159551 -3.227932
  H 4.664431 -1.137937 -4.329115
  H 2.504160 -1.752242 -3.233239
  H 3.392706 -2.776656 -2.075666
  H 6.306515 1.032035 -2.252138
 29
 22.249562
  C 1.356623 1.364310 0.097658
  C 2.518564 0.496132 0.315928
  C 3.106892 0.251101 1.642789
  C 2.484227 0.986532 2.825402
  C 3.169363 0.580559 4.126789
  C 3.071192 -0.188604 -0.818020
  C 4.196450 0.239123 -1.470006
  C 4.863094 -0.299270 -2.571639
  C 4.643738 -1.583427 -3.295679
  C 3.509591 -2.504848 -2.875336
  H 3.522953 -3.381213 -3.518903
  O 5.863911 0.381751 -3.114762
  H 1.305225 2.146314 0.849231
  H 0.422064 0.799254 0.170233
  H 1.406946 1.797737 -0.898742
  H 4.183005 0.470335 1.602014
  H 3.061162 -0.828702 1.826644
  H 1.421911 0.750336 2.896295
  H 2.588818 2.065268 2.697407
  H 3.061164 -0.486534 4.307689
  H 2.728378 1.109807 4.967781
  H 4.230530 0.817684 4.099190
  H 2.527806 -1.059515 -1.154036
  H 4.613393 1.173284 -1.106725
  H 5.593942 -2.126474 -3.238158
  H 4.528307 -1.327357 -4.354538
  H 2.543076 -2.026324 -3.000107
  H 3.634865 -2.847374 -1.852078
  H 6.053687 1.230330 -2.676565
 29
 19.165689
  C 1.620727 1.583080 0.074418
  C 2.658002 0.578052 0.323461
  C 3.096859 0.210607 1.682962
  C 2.452555 0.956644 2.847567
  C 2.993147 0.439335 4.176831
  C 3.217921 -0.148093 -0.773707
  C 4.159399 0.360754 -1.638870
  C 4.754394 -0.263086 -2.733806
  C 4.566957 -1.629184 -3.302589
  C 3.552316 -2.587264 -2.698521
  H 3.576408 -3.513269 -3.268517
  O 5.667958 0.401906 -3.430007
  H 1.592731 2.359459 0.833964
  H 0.657864 1.063687 0.113329
  H 1.688152 2.014029 -0.921994
  H 4.185292 0.331407 1.725774
  H 2.939696 -0.867752 1.823125
  H 1.370804 0.820707 2.828375
  H 2.666152 2.024101 2.776390
  H 2.773546 -0.618451 4.301826
  H 2.538667 0.976746 5.005238
  H 4.070490 0.575330 4.238587
  H 2.865405 -1.161577 -0.890640
  H 4.495197 1.371770 -1.437402
  H 5.556216 -2.100318 -3.289018
  H 4.338445 -1.482000 -4.363884
  H 2.542881 -2.190456 -2.763229
  H 3.799796 -2.833801 -1.670260
  H 5.840156 1.303386 -3.103116
 29
 8.551752
  C 1.926256 1.749294 0.071091
  C 2.833161 0.627023 0.336943
  C 3.104776 0.172405 1.720900
  C 2.425404 0.940958 2.850655
  C 2.784632 0.332853 4.202498
  C 3.384274 -0.116166 -0.719335
  C 4.117674 0.416196 -1.770613
  C 4.637996 -0.258691 -2.867349
  C 4.470252 -1.670223 -3.318440
  C 3.592222 -2.639964 -2.544625
  H 3.588543 -3.590119 -3.072733
  O 5.423394 0.397275 -3.709192
  H 1.984165 2.531000 0.822298
  H 0.911812 1.341677 0.125778
  H 2.030186 2.153844 -0.931641
  H 4.189717 0.195687 1.870897
  H 2.837717 -0.887841 1.805236
  H 1.342522 0.911868 2.725833
  H 2.743027 1.984269 2.844366
  H 2.456133 -0.701697 4.264001
  H 2.305156 0.885529 5.005764
  H 3.858579 0.361607 4.369195
  H 3.259769 -1.185028 -0.660275
  H 4.352182 1.472423 -1.705002
  H 5.479676 -2.087113 -3.401679
  H 4.107819 -1.602989 -4.350113
  H 2.566046 -2.290377 -2.488047
  H 3.983642 -2.829515 -1.550233
  H 5.573074 1.330781 -3.474105
 29
 1.770567
  C 2.252248 1.885439 0.082860
  C 3.032462 0.670817 0.358546
  C 3.118350 0.138418 1.740312
  C 2.409601 0.928416 2.835173
  C 2.563589 0.234744 4.185151
  C 3.603613 -0.080104 -0.662733
  C 4.106925 0.432405 -1.857707
  C 4.525800 -0.275722 -2.976008
  C 4.338379 -1.710046 -3.331513
  C 3.616814 -2.655410 -2.384803
  H 3.515465 -3.619763 -2.876935
  O 5.150388 0.363640 -3.948977
  H 2.402194 2.654470 0.836322
  H 1.195579 1.607600 0.137690
  H 2.416302 2.276695 -0.915047
  H 4.178862 0.041727 2.000329
  H 2.735651 -0.888777 1.743874
  H 1.347555 1.020546 2.603588
  H 2.829678 1.932735 2.911407
  H 2.128092 -0.761758 4.163112
  H 2.061249 0.803654 4.963627
  H 3.612443 0.144020 4.458917
  H 3.726449 -1.133981 -0.472144
  H 4.230092 1.507828 -1.909029
  H 5.331901 -2.109837 -3.560959
  H 3.813228 -1.698428 -4.293702
  H 2.620096 -2.295819 -2.146157
  H 4.182543 -2.820554 -1.472742
  H 5.297786 1.312982 -3.783042
 29
 2.406004
  C 2.478559 1.832746 0.005255
  C 3.267444 0.648229 0.379631
  C 3.233802 0.128024 1.768624
  C 2.355226 0.878287 2.763217
  C 2.361157 0.185589 4.122214
  C 3.972283 -0.058552 -0.574735
  C 4.334366 0.433256 -1.843736
  C 4.519441 -0.296022 -3.005929
  C 4.036659 -1.670122 -3.319439
  C 3.461223 -2.533524 -2.209434
  H 3.045978 -3.435615 -2.651401
  O 5.062685 0.272162 -4.068152
  H 2.519648 2.610247 0.762813
  H 1.430178 1.535439 -0.078205
  H 2.772981 2.205081 -0.970126
  H 4.261863 0.097913 2.148019
  H 2.914346 -0.919869 1.739868
  H 1.329525 0.926774 2.394412
  H 2.717240 1.900030 2.892094
  H 1.975052 -0.828367 4.044271
  H 1.737818 0.728755 4.828220
  H 3.368264 0.138080 4.530609
  H 4.312391 -1.047926 -0.307354
  H 4.597250 1.483992 -1.895289
  H 4.864562 -2.193692 -3.807894
  H 3.282168 -1.542833 -4.104650
  H 2.663663 -2.019457 -1.680619
  H 4.228455 -2.838935 -1.504376
  H 5.386758 1.180308 -3.924328
 29
 7.823086
  C 2.615104 1.676458 -0.104725
  C 3.410108 0.545409 0.399166
  C 3.309739 0.089389 1.805481
  C 2.338682 0.854732 2.694883
  C 2.252113 0.219324 4.080381
  C 4.206396 -0.130533 -0.492392
  C 4.561667 0.380228 -1.778681
  C 4.558249 -0.305352 -2.973538
  C 3.806607 -1.555966 -3.284035
  C 3.254182 -2.371371 -2.128523
  H 2.637948 -3.173116 -2.526795
  O 5.106304 0.217607 -4.058901
  H 2.539921 2.494688 0.600775
  H 1.599123 1.335918 -0.324491
  H 3.025596 1.965974 -1.070333
  H 4.311972 0.118820 2.250465
  H 3.026733 -0.969172 1.807333
  H 1.346687 0.861497 2.242113
  H 2.666359 1.889732 2.807215
  H 1.894177 -0.807510 4.017733
  H 1.562800 0.776519 4.711508
  H 3.226290 0.214549 4.568458
  H 4.641695 -1.079964 -0.192825
  H 5.086625 1.328119 -1.771676
  H 4.464450 -2.177770 -3.900972
  H 2.986255 -1.261263 -3.951099
  H 2.637617 -1.763361 -1.472984
  H 4.051829 -2.824073 -1.548600
  H 5.615015 1.033433 -3.904443
 29
 18.522532
  C 2.718637 1.478539 -0.186682
  C 3.478472 0.381174 0.446108
  C 3.346696 0.027320 1.879788
  C 2.319690 0.834902 2.666242
  C 2.221179 0.342959 4.106274
  C 4.303167 -0.296673 -0.407324
  C 4.629131 0.318699 -1.683663
  C 4.557291 -0.274129 -2.926849
  C 3.713691 -1.445101 -3.291966
  C 3.105805 -2.250043 -2.157100
  H 2.416463 -2.979923 -2.571302
  O 5.120116 0.290468 -3.985954
  H 2.565652 2.348145 0.432250
  H 1.767581 1.153730 -0.611311
  H 3.277446 1.591084 -1.144250
  H 4.333802 0.126489 2.356630
  H 3.088864 -1.032744 1.944010
  H 1.344386 0.754389 2.185122
  H 2.603917 1.887818 2.682799
  H 1.908432 -0.698244 4.147398
  H 1.492347 0.933954 4.657599
  H 3.178130 0.432493 4.612793
  H 4.777558 -1.222236 -0.140462
  H 5.386979 1.094907 -1.587632
  H 4.311991 -2.094576 -3.933523
  H 2.916839 -1.058145 -3.943190
  H 2.554888 -1.621590 -1.463123
  H 3.872264 -2.790225 -1.608067
  H 5.696796 1.046447 -3.784960
 29
 34.307797
  C 2.786572 1.333019 -0.223121
  C 3.521164 0.266406 0.486293
  C 3.367005 -0.022999 1.929202
  C 2.339350 0.841802 2.666180
  C 2.184054 0.408593 4.127486
  C 4.377258 -0.404814 -0.342672
  C 4.621523 0.290416 -1.629658
  C 4.529691 -0.259664 -2.891024
  C 3.671225 -1.372348 -3.271352
  C 3.039921 -2.172296 -2.152581
  H 2.333418 -2.872942 -2.579989
  O 5.118990 0.318885 -3.927990
  H 2.568995 2.220307 0.338494
  H 1.951112 1.043200 -0.867557
  H 3.530088 1.302612 -1.231693
  H 4.342640 0.085136 2.409983
  H 3.083881 -1.078450 2.032235
  H 1.366119 0.771317 2.153630
  H 2.653164 1.870758 2.657232
  H 1.840599 -0.618978 4.207163
  H 1.454604 1.049823 4.633250
  H 3.129455 0.490508 4.654164
  H 4.873102 -1.312178 -0.112069
  H 5.467403 0.975977 -1.521761
  H 4.237458 -2.046848 -3.933905
  H 2.899662 -0.940817 -3.906131
  H 2.506722 -1.549756 -1.450878
  H 3.793751 -2.746970 -1.611754
  H 5.720080 1.060004 -3.700088
 29
 39.504639
  C 2.719913 1.296650 -0.179518
  C 3.469484 0.271246 0.487331
  C 3.362379 -0.004596 1.959147
  C 2.331393 0.839830 2.704055
  C 2.227918 0.406637 4.162073
  C 4.334837 -0.394088 -0.321612
  C 4.613562 0.336098 -1.589001
  C 4.569682 -0.268840 -2.879065
  C 3.717013 -1.414486 -3.278148
  C 2.995401 -2.187221 -2.184912
  H 2.327969 -2.909515 -2.647489
  O 5.221142 0.255322 -3.884570
  H 2.439580 2.184595 0.364569
  H 1.997770 1.009497 -0.931201
  H 3.737277 1.180837 -1.390491
  H 4.340850 0.129278 2.426714
  H 3.102488 -1.061298 2.072337
  H 1.353591 0.734371 2.229186
  H 2.616042 1.892874 2.672989
  H 1.915944 -0.633035 4.235930
  H 1.499828 1.016706 4.691378
  H 3.186994 0.511712 4.664971
  H 4.875552 -1.281309 -0.046621
  H 5.481234 0.990782 -1.459570
  H 4.340584 -2.094433 -3.867372
  H 2.985357 -1.019235 -3.993168
  H 2.398241 -1.535771 -1.555686
  H 3.693616 -2.737600 -1.563133
  H 5.770888 1.034342 -3.674188
 29
 35.267954
  C 2.527244 1.315879 -0.128986
  C 3.396937 0.380700 0.448676
  C 3.373232 0.057364 1.925098
  C 2.292098 0.766591 2.736951
  C 2.290532 0.275568 4.180474
  C 4.326944 -0.227524 -0.352445
  C 4.618109 0.431429 -1.657488
  C 4.646966 -0.339356 -2.886732
  C 3.801825 -1.512415 -3.190570
  C 2.957574 -2.110084 -2.073638
  H 2.314748 -2.879010 -2.492869
  O 5.390574 0.032134 -3.878834
  H 2.114966 2.112933 0.464875
  H 1.957625 1.078347 -1.012047
  H 3.810585 1.217566 -1.668356
  H 4.348860 0.278986 2.364561
  H 3.225112 -1.022517 2.008867
  H 1.311753 0.577942 2.293002
  H 2.467358 1.844605 2.734950
  H 2.088543 -0.792747 4.225569
  H 1.525446 0.789684 4.757977
  H 3.253577 0.461633 4.652432
  H 4.927739 -1.057429 -0.021748
  H 5.518294 1.049000 -1.550411
  H 4.449696 -2.281209 -3.627405
  H 3.147856 -1.205114 -4.015485
  H 2.323605 -1.366446 -1.604030
  H 3.575650 -2.577325 -1.314569
  H 5.943494 0.827503 -3.736013
 29
 32.170839
  C 2.311369 1.242946 -0.079032
  C 3.191906 0.340509 0.451736
  C 3.301440 0.069558 1.936681
  C 2.279006 0.774953 2.818083
  C 2.491636 0.415839 4.286941
  C 4.139836 -0.291624 -0.363812
  C 4.555231 0.380128 -1.614796
  C 4.715069 -0.353618 -2.862609
  C 3.936498 -1.539026 -3.270465
  C 2.915227 -2.107044 -2.297167
  H 2.338519 -2.874671 -2.802865
  O 5.561926 0.046132 -3.752771
  H 1.753300 1.910563 0.547098
  H 1.951175 1.165691 -1.088703
  H 3.852539 1.238868 -1.717368
  H 4.306066 0.344913 2.276305
  H 3.204119 -1.010596 2.077114
  H 1.269632 0.484067 2.521201
  H 2.373302 1.854392 2.707614
  H 2.388432 -0.656212 4.441820
  H 1.758958 0.920282 4.912797
  H 3.484273 0.715146 4.618311
  H 4.578258 -1.229656 -0.076583
  H 5.470470 0.955181 -1.396935
  H 4.650794 -2.319088 -3.554516
  H 3.442550 -1.269816 -4.212929
  H 2.225762 -1.347860 -1.950276
  H 3.393579 -2.573392 -1.438849
  H 6.086072 0.840122 -3.534221
