 9
 0.000000
  C 0.958658 -0.016414 -0.004939
  C 2.457094 0.005974 0.015301
  C 3.159845 0.808297 0.790603
  H 4.235554 0.817346 0.800290
  H 0.597974 -0.754053 -0.718480
  H 0.560848 0.954746 -0.293237
  H 0.562849 -0.276255 0.975643
  H 2.960029 -0.683589 -0.649085
  H 2.658839 1.495584 1.453436
 9
 3.392315
  C 0.949152 -0.006431 -0.053044
  C 2.427431 0.004573 0.016950
  C 3.127292 0.805091 0.799982
  H 4.201862 0.778551 0.831773
  H 0.556597 -0.757943 -0.727247
  H 0.525009 0.961531 -0.293830
  H 0.764497 -0.259335 0.970479
  H 2.953315 -0.692542 -0.626971
  H 2.647527 1.517894 1.451270
 9
 11.611536
  C 0.931402 0.004406 -0.085257
  C 2.411855 0.000805 0.017251
  C 3.107277 0.801845 0.805015
  H 4.182282 0.745387 0.872723
  H 0.519501 -0.759295 -0.731679
  H 0.493360 0.973218 -0.280793
  H 0.937859 -0.253632 0.951662
  H 2.952048 -0.700165 -0.603414
  H 2.630137 1.537671 1.429922
 9
 22.117919
  C 0.914242 0.014672 -0.107732
  C 2.399446 -0.001043 0.031507
  C 3.100311 0.803983 0.813917
  H 4.158644 0.727083 0.895724
  H 0.499997 -0.752594 -0.743134
  H 0.466722 0.980810 -0.260896
  H 1.072186 -0.262177 0.918478
  H 2.947831 -0.724518 -0.578389
  H 2.629819 1.562114 1.417256
 9
 32.553395
  C 0.900353 0.020902 -0.127133
  C 2.386422 -0.003734 0.050237
  C 3.095801 0.810574 0.818263
  H 4.167861 0.710158 0.916352
  H 0.491459 -0.739664 -0.770912
  H 0.438616 0.986602 -0.226309
  H 1.177432 -0.292837 0.879279
  H 2.931226 -0.746436 -0.536553
  H 2.632206 1.598662 1.395409
 9
 40.483188
  C 0.891726 0.026512 -0.144064
  C 2.380325 -0.010188 0.074837
  C 3.100689 0.827032 0.815886
  H 4.158885 0.702386 0.938134
  H 0.500237 -0.695210 -0.833808
  H 0.410036 0.989101 -0.141220
  H 1.260309 -0.367386 0.828814
  H 2.908847 -0.789645 -0.464862
  H 2.651516 1.655061 1.336884
 9
 46.525580
  C 0.891476 0.032617 -0.157721
  C 2.372352 -0.011911 0.094802
  C 3.106207 0.842820 0.810128
  H 4.156199 0.690233 0.961743
  H 0.508489 -0.656104 -0.886391
  H 0.390562 0.978868 -0.066603
  H 1.329566 -0.427001 0.784938
  H 2.884348 -0.826772 -0.405326
  H 2.670112 1.704160 1.286688
 9
 51.446962
  C 0.890655 0.038065 -0.170496
  C 2.368756 -0.020882 0.114512
  C 3.113137 0.852309 0.804644
  H 4.159760 0.686716 0.972072
  H 0.511816 -0.626131 -0.920834
  H 0.379251 0.969841 -0.017864
  H 1.380586 -0.463546 0.755381
  H 2.873707 -0.856323 -0.360207
  H 2.683164 1.729897 1.257583
 9
 55.886280
  C 0.894508 0.042781 -0.179384
  C 2.366341 -0.031759 0.126848
  C 3.117192 0.853787 0.803687
  H 4.161673 0.681934 0.980657
  H 0.510718 -0.614327 -0.933559
  H 0.379930 0.967002 0.006601
  H 1.425333 -0.476658 0.741319
  H 2.870808 -0.873534 -0.340303
  H 2.690164 1.740334 1.242260
 9
 59.658452
  C 0.898853 0.048861 -0.190556
  C 2.367223 -0.042969 0.135045
  C 3.121093 0.851084 0.807131
  H 4.165917 0.679974 0.983589
  H 0.506338 -0.610550 -0.935854
  H 0.386050 0.966786 0.018496
  H 1.463865 -0.480979 0.738359
  H 2.873406 -0.885340 -0.329891
  H 2.694164 1.741602 1.235797
 9
 62.923723
  C 0.902048 0.055943 -0.203439
  C 2.370185 -0.053085 0.143364
  C 3.128699 0.848732 0.809151
  H 4.172840 0.676078 0.987918
  H 0.500892 -0.612821 -0.936188
  H 0.387580 0.967545 0.024651
  H 1.497036 -0.483087 0.741826
  H 2.880150 -0.891712 -0.323726
  H 2.702022 1.740098 1.234195
 9
 65.881451
  C 0.910103 0.064111 -0.216651
  C 2.372857 -0.063943 0.152093
  C 3.135335 0.846118 0.812341
  H 4.180364 0.674160 0.988358
  H 0.498352 -0.614765 -0.931902
  H 0.391874 0.968725 0.027386
  H 1.527950 -0.486230 0.747753
  H 2.885454 -0.899895 -0.319087
  H 2.707351 1.737907 1.236746
 9
 68.461555
  C 0.918186 0.074457 -0.232452
  C 2.377279 -0.074252 0.160025
  C 3.142993 0.841539 0.818865
  H 4.186688 0.667979 0.998434
  H 0.493715 -0.619863 -0.925838
  H 0.393813 0.968121 0.033195
  H 1.558131 -0.492122 0.759986
  H 2.893579 -0.900809 -0.321554
  H 2.716600 1.738538 1.230207
 9
 70.763790
  C 0.930032 0.086629 -0.253621
  C 2.382137 -0.084878 0.166617
  C 3.150845 0.839734 0.821369
  H 4.196338 0.669757 0.994902
  H 0.487728 -0.627036 -0.913177
  H 0.400689 0.971728 0.028243
  H 1.587584 -0.495039 0.776606
  H 2.900896 -0.910357 -0.315688
  H 2.718921 1.728106 1.246732
