 19
 0.000000
  C 1.019496 0.115359 0.349344
  C 2.488900 0.114907 0.346326
  C 3.223091 0.593043 1.528403
  H 2.547712 0.910465 2.316710
  C 3.139706 -0.343942 -0.796774
  C 4.524511 -0.407045 -0.956439
  C 5.161340 -0.859842 -2.089115
  C 4.548033 -1.350700 -3.318241
  H 3.463897 -1.345796 -3.307768
  H 6.245006 -0.857041 -2.081852
  H 0.606653 0.483642 1.282852
  H 0.640238 -0.891079 0.162020
  H 0.641481 0.724777 -0.473400
  H 3.878618 1.424472 1.263238
  H 3.880487 -0.188064 1.914414
  H 2.516348 -0.672997 -1.614845
  H 5.147625 -0.079179 -0.137583
  H 4.912157 -2.361540 -3.522359
  H 4.913135 -0.759298 -4.162603
 19
 5.209110
  C 1.015363 0.071049 0.389426
  C 2.460704 0.116503 0.347885
  C 3.218242 0.602246 1.515094
  H 2.557487 0.940569 2.308631
  C 3.119986 -0.343799 -0.806858
  C 4.507908 -0.398284 -0.968980
  C 5.142277 -0.844480 -2.080843
  C 4.539917 -1.347562 -3.306372
  H 3.456362 -1.355538 -3.301938
  H 6.221809 -0.829944 -2.069201
  H 0.560059 0.461323 1.289401
  H 0.579786 -0.896844 0.140409
  H 0.904030 0.715581 -0.468145
  H 3.893766 1.416628 1.244893
  H 3.852406 -0.199426 1.902171
  H 2.494552 -0.679591 -1.623026
  H 5.129257 -0.063237 -0.151672
  H 4.913365 -2.354810 -3.500071
  H 4.900241 -0.755757 -4.149748
 19
 12.383424
  C 1.009198 0.022726 0.417593
  C 2.438311 0.104696 0.366072
  C 3.208833 0.619046 1.514777
  H 2.554104 1.000052 2.295960
  C 3.103732 -0.347380 -0.801915
  C 4.484896 -0.374834 -0.971062
  C 5.135444 -0.828309 -2.099491
  C 4.541857 -1.372777 -3.312595
  H 3.463730 -1.415891 -3.297668
  H 6.215989 -0.780532 -2.099627
  H 0.525826 0.339442 1.335864
  H 0.535214 -0.828362 -0.029383
  H 1.122526 0.812793 -0.340350
  H 3.915432 1.395564 1.228378
  H 3.795650 -0.207073 1.933158
  H 2.483510 -0.706581 -1.607439
  H 5.103834 -0.017714 -0.159958
  H 4.942137 -2.371890 -3.488651
  H 4.872451 -0.782984 -4.168020
 19
 18.907290
  C 1.003889 -0.013700 0.443969
  C 2.424817 0.097035 0.356485
  C 3.192559 0.637714 1.506038
  H 2.535094 1.033539 2.274570
  C 3.094953 -0.355968 -0.814805
  C 4.478494 -0.369261 -0.981993
  C 5.135677 -0.821488 -2.100023
  C 4.546792 -1.388602 -3.320511
  H 3.462760 -1.445221 -3.305179
  H 6.214919 -0.760341 -2.097280
  H 0.525785 0.222224 1.380274
  H 0.484293 -0.755933 -0.146198
  H 1.279752 0.885051 -0.177800
  H 3.904785 1.408731 1.209460
  H 3.766131 -0.185238 1.944332
  H 2.478673 -0.728703 -1.614851
  H 5.093451 -0.000647 -0.169389
  H 4.958278 -2.388462 -3.486999
  H 4.869547 -0.799601 -4.183601
 19
 24.340587
  C 0.996986 -0.039437 0.462885
  C 2.411995 0.101145 0.348581
  C 3.182047 0.647522 1.498592
  H 2.530540 1.046870 2.257591
  C 3.087977 -0.356664 -0.828448
  C 4.474302 -0.362362 -0.994071
  C 5.136428 -0.818417 -2.103909
  C 4.554690 -1.397356 -3.320110
  H 3.469312 -1.459549 -3.305041
  H 6.215847 -0.750966 -2.099380
  H 0.522361 0.155121 1.405823
  H 0.449669 -0.693867 -0.207707
  H 1.395026 0.911659 -0.061533
  H 3.876191 1.405232 1.199565
  H 3.754459 -0.166611 1.943439
  H 2.470777 -0.739836 -1.627120
  H 5.085243 0.015310 -0.184932
  H 4.969876 -2.395274 -3.476570
  H 4.872928 -0.812733 -4.185859
 19
 28.591667
  C 0.991215 -0.068512 0.474995
  C 2.399619 0.109298 0.338815
  C 3.176590 0.651606 1.493806
  H 2.520069 1.054652 2.262430
  C 3.081710 -0.354367 -0.835880
  C 4.466235 -0.357586 -0.995920
  C 5.135573 -0.817695 -2.101336
  C 4.559016 -1.400689 -3.323307
  H 3.476967 -1.460790 -3.314271
  H 6.213039 -0.751959 -2.090639
  H 0.513249 0.119335 1.422171
  H 0.433525 -0.660280 -0.234249
  H 1.481148 0.916222 -0.002260
  H 3.874716 1.423567 1.185380
  H 3.752548 -0.154745 1.934447
  H 2.469075 -0.742396 -1.632045
  H 5.071933 0.023845 -0.187660
  H 4.971832 -2.398124 -3.474522
  H 4.881514 -0.819343 -4.187406
 19
 32.529506
  C 0.991553 -0.092534 0.472577
  C 2.394475 0.118091 0.327805
  C 3.179161 0.656849 1.493094
  H 2.523956 1.056950 2.266436
  C 3.078418 -0.347881 -0.838627
  C 4.456221 -0.352011 -0.991244
  C 5.131625 -0.817557 -2.099096
  C 4.558555 -1.396795 -3.314308
  H 3.446546 -1.454758 -3.306860
  H 6.214738 -0.754544 -2.085709
  H 0.512312 0.105041 1.416622
  H 0.435161 -0.660961 -0.252723
  H 1.554051 0.903838 0.008124
  H 3.880242 1.430265 1.184853
  H 3.747890 -0.139264 1.926869
  H 2.466117 -0.741722 -1.645257
  H 5.065845 0.035257 -0.172248
  H 4.967995 -2.393857 -3.462273
  H 4.886155 -0.815644 -4.181192
 19
 35.634112
  C 0.985029 -0.110697 0.485416
  C 2.387914 0.134156 0.330760
  C 3.177381 0.665303 1.495255
  H 2.525546 1.064692 2.266284
  C 3.074326 -0.339675 -0.842166
  C 4.453988 -0.345972 -0.993742
  C 5.128548 -0.814206 -2.095295
  C 4.556750 -1.398564 -3.319807
  H 3.481101 -1.451777 -3.317376
  H 6.206498 -0.754193 -2.077757
  H 0.501858 0.096872 1.420085
  H 0.430166 -0.660329 -0.257167
  H 1.605888 0.909138 0.017433
  H 3.872753 1.436388 1.185631
  H 3.758744 -0.148163 1.936426
  H 2.452691 -0.736621 -1.651623
  H 5.066895 0.043512 -0.168696
  H 4.965438 -2.403183 -3.465584
  H 4.887676 -0.820294 -4.185431
 19
 38.292008
  C 0.982117 -0.135332 0.497730
  C 2.380679 0.151167 0.334962
  C 3.174875 0.673847 1.501461
  H 2.525277 1.067540 2.270990
  C 3.074009 -0.333288 -0.848499
  C 4.457883 -0.344639 -1.000042
  C 5.135622 -0.817279 -2.096096
  C 4.565846 -1.397496 -3.322322
  H 3.474232 -1.441697 -3.325434
  H 6.216683 -0.767050 -2.071972
  H 0.485877 0.080067 1.429085
  H 0.431489 -0.669273 -0.259274
  H 1.645782 0.922214 0.017894
  H 3.872533 1.455582 1.192410
  H 3.755442 -0.139900 1.935399
  H 2.463772 -0.714898 -1.628476
  H 5.046427 0.024678 -0.204190
  H 4.964048 -2.399218 -3.464596
  H 4.904670 -0.824273 -4.181778
 19
 40.278817
  C 0.982627 -0.158710 0.507114
  C 2.375498 0.164477 0.332111
  C 3.178507 0.679570 1.505788
  H 2.526590 1.080737 2.280411
  C 3.072814 -0.331447 -0.854142
  C 4.453635 -0.344613 -1.000166
  C 5.133383 -0.818930 -2.095829
  C 4.564092 -1.395854 -3.321846
  H 3.479346 -1.435431 -3.325865
  H 6.219923 -0.771651 -2.069260
  H 0.482917 0.065098 1.430163
  H 0.435625 -0.679725 -0.259321
  H 1.692293 0.945369 0.003776
  H 3.875194 1.452023 1.199405
  H 3.750194 -0.134164 1.937065
  H 2.452710 -0.714947 -1.641376
  H 5.052844 0.038682 -0.186599
  H 4.961224 -2.404860 -3.464978
  H 4.908075 -0.819783 -4.185022
 19
 41.142709
  C 0.988251 -0.187116 0.521017
  C 2.368762 0.188626 0.327609
  C 3.177629 0.679401 1.509216
  H 2.527015 1.077989 2.288192
  C 3.075863 -0.324156 -0.858459
  C 4.452516 -0.334121 -1.001829
  C 5.133688 -0.816627 -2.096240
  C 4.566691 -1.397938 -3.319534
  H 3.486195 -1.433763 -3.326489
  H 6.211781 -0.772289 -2.067779
  H 0.481097 0.053035 1.436500
  H 0.434169 -0.691686 -0.252548
  H 1.736693 0.993281 -0.016612
  H 3.879880 1.451031 1.212682
  H 3.742713 -0.146555 1.932739
  H 2.454036 -0.713007 -1.645596
  H 5.050543 0.056469 -0.192495
  H 4.962640 -2.412153 -3.456022
  H 4.916724 -0.825237 -4.188968
 19
 42.617466
  C 0.992220 -0.208158 0.522068
  C 2.370521 0.202757 0.321224
  C 3.178460 0.683532 1.512562
  H 2.529023 1.079750 2.283665
  C 3.076500 -0.312734 -0.860239
  C 4.453449 -0.323343 -1.002629
  C 5.133117 -0.811427 -2.092723
  C 4.563612 -1.398810 -3.318610
  H 3.481611 -1.430865 -3.328387
  H 6.215624 -0.770971 -2.062140
  H 0.481723 0.032399 1.436014
  H 0.443828 -0.706291 -0.256499
  H 1.784247 1.014445 -0.028608
  H 3.887214 1.456190 1.222400
  H 3.738666 -0.148048 1.937377
  H 2.452536 -0.704080 -1.649400
  H 5.051677 0.065588 -0.190376
  H 4.954508 -2.408650 -3.449276
  H 4.914418 -0.837959 -4.178659
 19
 43.231694
  C 0.996496 -0.225459 0.528445
  C 2.368449 0.219949 0.320559
  C 3.177179 0.684990 1.519172
  H 2.526262 1.086272 2.288680
  C 3.080017 -0.305993 -0.864710
  C 4.454849 -0.314011 -1.007192
  C 5.133729 -0.808431 -2.095498
  C 4.564533 -1.403668 -3.316932
  H 3.487287 -1.437023 -3.328024
  H 6.213894 -0.765779 -2.065479
  H 0.483814 0.014362 1.440867
  H 0.448627 -0.719962 -0.254159
  H 1.830852 1.051234 -0.039911
  H 3.894008 1.451463 1.236542
  H 3.724932 -0.154461 1.943574
  H 2.454560 -0.700690 -1.650367
  H 5.054146 0.077881 -0.195859
  H 4.955745 -2.409848 -3.440421
  H 4.918436 -0.846632 -4.186592
 19
 42.431293
  C 1.006509 -0.247617 0.540809
  C 2.357076 0.243634 0.312304
  C 3.175115 0.681102 1.521966
  H 2.527115 1.089518 2.292361
  C 3.079499 -0.297790 -0.871382
  C 4.451676 -0.297521 -1.012775
  C 5.134232 -0.803217 -2.099139
  C 4.569514 -1.405705 -3.310629
  H 3.484422 -1.435152 -3.326935
  H 6.215183 -0.763089 -2.065513
  H 0.495552 -0.005910 1.453854
  H 0.456445 -0.749170 -0.234682
  H 1.888674 1.111569 -0.071639
  H 3.905940 1.437575 1.249433
  H 3.702716 -0.171154 1.940910
  H 2.454162 -0.700040 -1.651818
  H 5.048198 0.096035 -0.205222
  H 4.960723 -2.417169 -3.424772
  H 4.931897 -0.856543 -4.187101
