 26
 0.000000
  C 0.958733 0.142238 0.405928
  C 2.435627 0.138812 0.396949
  C 3.229471 0.606512 1.560312
  C 2.462344 1.098650 2.784948
  H 3.137579 1.408205 3.555100
  C 3.047724 -0.326485 -0.761128
  C 4.427680 -0.410350 -0.970580
  C 5.111749 -0.860636 -2.093538
  C 4.622398 -1.384411 -3.399794
  C 3.132979 -1.504809 -3.700598
  H 2.985456 -1.899227 -4.684250
  O 6.434575 -0.852273 -2.073085
  H 0.530877 0.513603 1.329858
  H 0.585106 -0.868946 0.237722
  H 0.584800 0.755552 -0.415298
  H 3.886571 1.416144 1.222870
  H 3.886751 -0.211308 1.877002
  H 1.825548 0.303651 3.177702
  H 1.825480 1.944269 2.518350
  H 2.388559 -0.643775 -1.550690
  H 5.047217 -0.079018 -0.145404
  H 5.082172 -2.371786 -3.523346
  H 5.082493 -0.756172 -4.171309
  H 2.655388 -0.525521 -3.650229
  H 2.655156 -2.177872 -2.987664
  H 6.800018 -0.516405 -1.234749
 26
 0.000000
  C 0.946370 0.158547 0.446590
  C 2.423273 0.155684 0.439013
  C 3.215834 0.623693 1.603125
  C 2.447358 1.115545 2.827030
  H 3.121744 1.425362 3.597820
  C 3.036646 -0.309386 -0.718480
  C 4.416832 -0.392726 -0.926623
  C 5.165347 -0.884268 -2.152448
  C 4.677436 -1.408234 -3.459166
  C 3.188349 -1.529196 -3.761384
  H 3.041909 -1.923674 -4.745174
  O 6.342804 -0.889853 -2.166765
  H 0.517496 0.529754 1.370112
  H 0.573288 -0.852781 0.278036
  H 0.572982 0.771713 -0.374994
  H 3.872946 1.433573 1.266302
  H 3.873125 -0.193875 1.920444
  H 1.810493 0.320306 3.219185
  H 1.810425 1.960920 2.559823
  H 2.378351 -0.626932 -1.508665
  H 5.035459 -0.061154 -0.100861
  H 5.137700 -2.395435 -3.582277
  H 5.138026 -0.779824 -4.230246
  H 2.710340 -0.550089 -3.711473
  H 2.710103 -2.202437 -3.048901
  H 6.657813 -0.556589 -1.334945
 26
 0.000000
  C 0.930307 0.176803 0.492106
  C 2.407212 0.174119 0.484974
  C 3.199366 0.642232 1.649323
  C 2.430461 1.133998 2.872993
  H 3.104576 1.443901 3.643984
  C 3.020991 -0.290883 -0.672331
  C 4.401249 -0.374057 -0.880056
  C 5.219454 -0.910963 -2.218991
  C 4.732000 -1.434992 -3.525855
  C 3.243019 -1.556132 -3.828524
  H 3.096924 -1.950631 -4.812356
  O 6.275044 -0.929043 -2.264451
  H 0.501109 0.547963 1.415496
  H 0.557399 -0.834571 0.323445
  H 0.557092 0.789919 -0.329594
  H 3.856480 1.452190 1.312693
  H 3.856660 -0.175254 1.966845
  H 1.793574 0.338683 3.264960
  H 1.793505 1.979294 2.605588
  H 2.362973 -0.608514 -1.462713
  H 5.019587 -0.042404 -0.054110
  H 5.192418 -2.422140 -3.648822
  H 5.192749 -0.806531 -4.296798
  H 2.764879 -0.577080 -3.778762
  H 2.764637 -2.229426 -3.116183
  H 6.554075 -0.594768 -1.430133
 26
 0.000000
  C 0.910695 0.197033 0.542541
  C 2.387598 0.194167 0.534954
  C 3.180168 0.662189 1.699056
  C 2.411700 1.154058 2.922960
  H 3.086091 1.463883 3.693742
  C 3.000962 -0.270918 -0.622537
  C 4.381147 -0.354263 -0.830687
  C 5.274127 -0.940699 -2.293113
  C 4.786206 -1.464672 -3.599824
  C 3.297117 -1.585623 -3.902036
  H 3.150670 -1.980109 -4.885822
  O 6.230840 -0.969841 -2.366145
  H 0.481827 0.568252 1.466061
  H 0.537610 -0.814296 0.374002
  H 0.537303 0.810190 -0.279048
  H 3.837278 1.472065 1.362219
  H 3.837459 -0.155376 2.016380
  H 1.774836 0.358824 3.315128
  H 1.774767 1.999430 2.655746
  H 2.342662 -0.588473 -1.412714
  H 4.999780 -0.022681 -0.004934
  H 5.246461 -2.451879 -3.722928
  H 5.246799 -0.836273 -4.370912
  H 2.819117 -0.606511 -3.852133
  H 2.818867 -2.258853 -3.189546
  H 6.485310 -0.631053 -1.520591
 26
 0.000000
  C 0.888100 0.218947 0.597172
  C 2.364995 0.215590 0.588359
  C 3.158686 0.683355 1.751800
  C 2.391399 1.175487 2.976338
  H 3.066533 1.485093 3.746558
  C 2.977244 -0.249707 -0.569637
  C 4.357228 -0.333513 -0.778932
  C 5.328855 -0.972939 -2.373474
  C 4.839675 -1.496753 -3.679779
  C 3.350296 -1.617203 -3.980757
  H 3.202901 -2.011643 -4.964419
  O 6.208234 -1.011816 -2.470769
  H 0.460123 0.590314 1.521045
  H 0.514539 -0.792259 0.428949
  H 0.514231 0.832223 -0.224111
  H 3.815786 1.493010 1.414412
  H 3.815969 -0.134426 2.068584
  H 1.754596 0.380468 3.369040
  H 1.754525 2.021070 2.709648
  H 2.318183 -0.567047 -1.359266
  H 4.976656 -0.002131 0.046305
  H 5.299495 -2.484115 -3.803259
  H 5.299842 -0.868513 -4.451250
  H 2.872668 -0.637929 -3.930462
  H 2.872409 -2.290269 -3.267868
  H 6.447018 -0.665238 -1.605809
 26
 0.000000
  C 0.863407 0.242044 0.654751
  C 2.340289 0.237968 0.644147
  C 3.135618 0.705355 1.806622
  C 2.370055 1.197867 3.032086
  H 3.046273 1.507149 3.801484
  C 2.950907 -0.227633 -0.514588
  C 4.330595 -0.312111 -0.725556
  C 5.382938 -1.006782 -2.457831
  C 4.891920 -1.530361 -3.763540
  C 3.402118 -1.650081 -4.062714
  H 3.253339 -2.044453 -5.046195
  O 6.203311 -1.054271 -2.576590
  H 0.436732 0.613625 1.579140
  H 0.489151 -0.768981 0.486988
  H 0.488841 0.855497 -0.166082
  H 3.792702 1.514688 1.468432
  H 3.792887 -0.112744 2.122614
  H 1.733343 0.403160 3.425565
  H 1.733270 2.043758 2.766163
  H 2.290734 -0.544657 -1.303414
  H 4.951185 0.018974 0.098928
  H 5.351105 -2.517950 -3.887572
  H 5.351460 -0.902350 -4.535571
  H 2.925032 -0.670573 -4.011845
  H 2.924765 -2.322909 -3.349243
  H 6.432694 -0.697169 -1.685401
 26
 0.000000
  C 0.837429 0.265894 0.714207
  C 2.314291 0.260961 0.701464
  C 3.111575 0.727892 1.862782
  C 2.348075 1.220856 3.089350
  H 3.025586 1.529749 3.857766
  C 2.922959 -0.205002 -0.458152
  C 4.302291 -0.290283 -0.671118
  C 5.435999 -1.041412 -2.544147
  C 4.942785 -1.564708 -3.849142
  C 3.452482 -1.683557 -4.146159
  H 3.302050 -2.077845 -5.129423
  O 6.211390 -1.096652 -2.682226
  H 0.412309 0.637729 1.639211
  H 0.462343 -0.744914 0.546993
  H 0.462030 0.879560 -0.106087
  H 3.768639 1.536841 1.523635
  H 3.768825 -0.090588 2.177826
  H 1.711471 0.426521 3.483756
  H 1.711397 2.067115 2.824344
  H 2.261460 -0.521647 -1.246019
  H 4.924267 0.040446 0.152464
  H 5.401212 -2.552566 -3.973833
  H 5.401576 -0.936969 -4.621840
  H 2.976044 -0.703769 -4.094605
  H 2.975768 -2.356102 -3.431996
  H 6.435123 -0.727036 -1.759843
 26
 0.000000
  C 0.810672 0.290273 0.774977
  C 2.287509 0.284409 0.759914
  C 3.086910 0.750843 1.919976
  C 2.325647 1.244295 3.147739
  H 3.004559 1.552765 3.915088
  C 2.894062 -0.181943 -0.400653
  C 4.273003 -0.268094 -0.615784
  C 5.488048 -1.076321 -2.631160
  C 4.992457 -1.599309 -3.935377
  C 3.501614 -1.717214 -4.230057
  H 3.349390 -2.111410 -5.213081
  O 6.228561 -1.138700 -2.787030
  H 0.387240 0.662380 1.700644
  H 0.434687 -0.720300 0.608358
  H 0.434372 0.904171 -0.044730
  H 3.743949 1.559377 1.579793
  H 3.744138 -0.068048 2.233993
  H 1.689163 0.450363 3.543149
  H 1.689087 2.090953 2.883728
  H 2.231127 -0.498176 -1.187478
  H 4.896480 0.062247 0.206818
  H 5.450060 -2.587458 -4.060784
  H 5.450433 -0.971864 -4.708797
  H 3.025879 -0.737124 -4.177759
  H 3.025595 -2.389454 -3.515143
  H 6.448270 -0.755276 -1.830226
 26
 0.000000
  C 0.783375 0.315110 0.836888
  C 2.260182 0.308288 0.819439
  C 3.061759 0.774210 1.978204
  C 2.302802 1.268161 3.207193
  H 2.983153 1.576195 3.973442
  C 2.864555 -0.158463 -0.342105
  C 4.243091 -0.245509 -0.559464
  C 5.539265 -1.111247 -2.718212
  C 5.041227 -1.633915 -4.021625
  C 3.549834 -1.750847 -4.313896
  H 3.395765 -2.144947 -5.296672
  O 6.252187 -1.180354 -2.890851
  H 0.361681 0.687496 1.763237
  H 0.406466 -0.695220 0.670883
  H 0.406149 0.929248 0.017787
  H 3.718772 1.582315 1.636954
  H 3.718963 -0.045106 2.291163
  H 1.666443 0.474645 3.603636
  H 1.666365 2.115231 2.944206
  H 2.200145 -0.474270 -1.127856
  H 4.868111 0.084432 0.262127
  H 5.497982 -2.622363 -4.147766
  H 5.498364 -1.006772 -4.795786
  H 3.074824 -0.770447 -4.260835
  H 3.074530 -2.422774 -3.598212
  H 6.467898 -0.782347 -1.897694
 26
 0.000000
  C 0.755616 0.340417 0.899971
  C 2.232388 0.332638 0.880136
  C 3.036136 0.798047 2.037603
  C 2.279485 1.292496 3.267813
  H 2.961272 1.600093 4.032961
  C 2.834582 -0.134510 -0.282379
  C 4.212709 -0.222449 -0.501963
  C 5.589829 -1.146039 -2.804929
  C 5.089349 -1.668385 -4.107535
  C 3.597411 -1.784346 -4.397400
  H 3.441500 -2.178348 -5.379924
  O 6.280685 -1.221632 -2.993734
  H 0.335659 0.713080 1.826997
  H 0.377785 -0.669669 0.734581
  H 0.377465 0.954795 0.081476
  H 3.693121 1.605725 1.695288
  H 3.693314 -0.021693 2.349506
  H 1.643254 0.499393 3.665288
  H 1.643173 2.139976 3.005849
  H 2.168700 -0.449890 -1.067054
  H 4.839268 0.107091 0.318616
  H 5.545255 -2.657132 -4.234408
  H 5.545646 -1.041544 -4.882434
  H 3.123127 -0.803635 -4.343577
  H 3.122823 -2.455960 -3.680947
  H 6.491235 -0.808612 -1.963155
 26
 0.000000
  C 0.727383 0.366244 0.964350
  C 2.204116 0.357529 0.942180
  C 3.009990 0.822433 2.098371
  C 2.255599 1.317368 3.329774
  H 2.938790 1.624536 4.093840
  C 2.804174 -0.110006 -0.221283
  C 4.181895 -0.198821 -0.443047
  C 5.639855 -1.180577 -2.891013
  C 5.136983 -1.702608 -4.192825
  C 3.644515 -1.817615 -4.480332
  H 3.486800 -2.211520 -5.462607
  O 6.313158 -1.262564 -3.095752
  H 0.309129 0.739179 1.892037
  H 0.348650 -0.643602 0.799564
  H 0.348327 0.980858 0.146451
  H 3.666944 1.629693 1.755013
  H 3.667140 0.002278 2.409239
  H 1.619494 0.524671 3.728259
  H 1.619411 2.165251 3.068812
  H 2.136851 -0.424968 -1.004902
  H 4.809961 0.130325 0.376538
  H 5.592056 -2.691646 -4.320414
  H 5.592456 -1.076060 -4.968446
  H 3.170944 -0.836601 -4.425763
  H 3.170631 -2.488924 -3.763128
  H 6.516485 -0.834315 -2.027213
 26
 0.000000
  C 0.698601 0.392671 1.030220
  C 2.175293 0.383051 1.005796
  C 2.983215 0.847467 2.160753
  C 2.231009 1.342869 3.393303
  H 2.915554 1.649623 4.156324
  C 2.773288 -0.084857 -0.158580
  C 4.150615 -0.174516 -0.382446
  C 5.689369 -1.214726 -2.976125
  C 5.184191 -1.736450 -4.277167
  C 3.691216 -1.850536 -4.562398
  H 3.531761 -2.244348 -5.544430
  O 6.349114 -1.303155 -3.196923
  H 0.281993 0.765865 1.958543
  H 0.318999 -0.616945 0.866018
  H 0.318674 1.007513 0.212897
  H 3.640139 1.654323 1.816387
  H 3.640337 0.026912 2.470621
  H 1.595028 0.550564 3.792763
  H 1.594942 2.191140 3.133307
  H 2.104577 -0.399413 -0.941177
  H 4.780132 0.154249 0.436177
  H 5.638458 -2.725769 -4.405446
  H 5.638868 -1.110185 -5.053485
  H 3.218334 -0.869231 -4.507111
  H 3.218012 -2.521551 -3.844470
  H 6.542450 -0.859578 -2.090176
 26
 0.000000
  C 0.669131 0.419810 1.097865
  C 2.145781 0.409330 1.071297
  C 2.955649 0.873281 2.225077
  C 2.205522 1.369126 3.458715
  H 2.891352 1.675485 4.220739
  C 2.741812 -0.058931 -0.093944
  C 4.118759 -0.149394 -0.319809
  C 5.738305 -1.248296 -3.059794
  C 5.230935 -1.769726 -4.360100
  C 3.737480 -1.882937 -4.643165
  H 3.576370 -2.276657 -5.624964
  O 6.388256 -1.343362 -3.297135
  H 0.254088 0.793251 2.026790
  H 0.288703 -0.589585 0.934220
  H 0.288376 1.034869 0.281092
  H 3.612542 1.679752 1.879753
  H 3.612742 0.052344 2.533995
  H 1.569660 0.577194 3.859103
  H 1.569572 2.217766 3.199639
  H 2.071782 -0.373102 -0.875568
  H 4.749656 0.179009 0.497898
  H 5.684434 -2.759313 -4.489034
  H 5.684853 -1.143731 -5.137078
  H 3.265256 -0.901353 -4.587196
  H 3.264924 -2.553671 -3.924549
  H 6.568272 -0.884403 -2.152050
 26
 0.000000
  C 0.638716 0.447852 1.167759
  C 2.115322 0.436569 1.139188
  C 2.927007 0.900084 2.291866
  C 2.178824 1.396343 3.526518
  H 2.865854 1.702332 4.287610
  C 2.709518 -0.032022 -0.026857
  C 4.086108 -0.123235 -0.254589
  C 5.786466 -1.280990 -3.141279
  C 5.277049 -1.802145 -4.440894
  C 3.783151 -1.914537 -4.721937
  H 3.620495 -2.308171 -5.703515
  O 6.430330 -1.383036 -3.396020
  H 0.225137 0.821523 2.097244
  H 0.257518 -0.561337 1.004635
  H 0.257188 1.063115 0.351499
  H 3.583870 1.706196 1.945648
  H 3.584072 0.078792 2.599897
  H 1.543075 0.604758 3.927772
  H 1.542985 2.245328 3.268300
  H 2.038257 -0.345831 -0.807570
  H 4.718292 0.204829 0.562259
  H 5.729830 -2.791981 -4.570439
  H 5.730258 -1.176402 -5.218489
  H 3.311541 -0.932694 -4.665332
  H 3.311199 -2.585009 -4.002679
  H 6.593241 -0.908640 -2.212458
