16

C 0.955473 0.142417 0.407036
C 2.43139 0.138375 0.396254
C 3.225667 0.605236 1.557061
H 2.689887806963434 0.9506319053069997 2.4164458526162447
C 3.040241 -0.328066 -0.764349
C 4.417027 -0.409834 -0.969005
C 5.108629 -0.859137 -2.089578
H 4.755830076531489 -1.2350472231662657 -3.027194352096394
H 6.178465325871513 -0.8520595362723387 -2.072253296454917
H 0.5348 0.514717 1.333137
H 0.580835 -0.867497 0.236028
H 0.58035 0.752667 -0.415404
H 3.883428 1.413815 1.219579
H 3.883726 -0.211689 1.873108
H 2.370371 -0.642604 -1.546367
H 5.042108 -0.079879 -0.148002
