17

C 0.972192 0.138431 0.401689
C 2.450944 0.136374 0.394884
H 3.0157871324830783 0.47514784550135225 1.2381422743684938
C 3.06233 -0.327563 -0.761239
C 4.441563 -0.41369 -0.976592
C 5.119222 -0.863435 -2.099535
C 4.625038 -1.385886 -3.404424
H 3.5785189078133355 -1.4685001470022294 -3.6114812201201727
O 6.444582 -0.858157 -2.086273
H 0.543139 0.503495 1.328001
H 0.600276 -0.873667 0.235329
H 0.587023 0.75858 -0.409595
H 2.402472 -0.644538 -1.550917
H 5.058791 -0.082045 -0.149457
H 5.08077 -2.374786 -3.530641
H 5.081259 -0.757719 -4.178277
H 6.815029 -0.523115 -1.248182
