 23
 0.000000
  C 0.971127 0.127468 0.368107
  C 2.476570 0.126414 0.365070
  C 3.249991 0.610495 1.570025
  C 2.440963 1.092700 2.770756
  C 3.365577 1.544784 3.896058
  C 3.113933 -0.312667 -0.728317
  C 4.537232 -0.382513 -0.902645
  C 5.124438 -0.829309 -2.015904
  H 4.575789 -1.176718 -2.881276
  O 6.467150 -0.905647 -2.206412
  H 0.554564 0.500314 1.296497
  H 0.596497 -0.881424 0.208319
  H 0.596322 0.745459 -0.445119
  H 3.900698 1.430241 1.252599
  H 3.900914 -0.201003 1.907822
  H 1.804613 0.285871 3.140941
  H 1.804511 1.931250 2.480055
  H 4.002968 0.724835 4.221473
  H 2.787216 1.888064 4.750889
  H 4.002820 2.362177 3.563833
  H 2.528178 -0.652080 -1.573247
  H 5.164288 -0.053925 -0.084190
  H 6.905026 -0.585397 -1.408542
 23
 0.339685
  C 0.969349 0.161970 0.357894
  C 2.473473 0.084802 0.380599
  C 3.249588 0.580945 1.582573
  C 2.441004 1.097593 2.771401
  C 3.365899 1.522728 3.907461
  C 3.111000 -0.403930 -0.693240
  C 4.538439 -0.450655 -0.873316
  C 5.126991 -0.819348 -2.014198
  H 4.580291 -1.170653 -2.877078
  O 6.466642 -0.794428 -2.236349
  H 0.566362 0.697949 1.208926
  H 0.539973 -0.841510 0.354876
  H 0.635274 0.661323 -0.551582
  H 3.919346 1.384016 1.255092
  H 3.883110 -0.238472 1.940082
  H 1.771513 0.314956 3.134380
  H 1.838842 1.957389 2.470228
  H 3.970403 0.683144 4.244679
  H 2.788618 1.889531 4.753097
  H 4.034927 2.316112 3.580317
  H 2.527274 -0.751761 -1.536396
  H 5.164004 -0.128709 -0.049828
  H 6.891647 -0.400009 -1.464666
 23
 1.740854
  C 0.965779 0.200529 0.353361
  C 2.461832 0.051389 0.372465
  C 3.250501 0.545185 1.566321
  C 2.455842 1.099879 2.746793
  C 3.390333 1.493842 3.886146
  C 3.085354 -0.495430 -0.681109
  C 4.514197 -0.522732 -0.853309
  C 5.138003 -0.805161 -1.999412
  H 4.645694 -1.183055 -2.881843
  O 6.471694 -0.627948 -2.184344
  H 0.605465 0.867427 1.126994
  H 0.485808 -0.769646 0.492901
  H 0.642386 0.587028 -0.611893
  H 3.941335 1.325502 1.228888
  H 3.860622 -0.284615 1.937746
  H 1.753250 0.346471 3.108659
  H 1.890597 1.982051 2.439410
  H 3.950661 0.630425 4.239317
  H 2.823902 1.898322 4.722047
  H 4.099787 2.250137 3.555894
  H 2.500238 -0.852132 -1.518606
  H 5.123762 -0.243502 -0.002743
  H 6.795983 -0.143233 -1.414339
 23
 5.972344
  C 0.961547 0.202073 0.347355
  C 2.457092 0.029137 0.360717
  C 3.259958 0.528405 1.542009
  C 2.481249 1.108624 2.721025
  C 3.427536 1.493813 3.853351
  C 3.052663 -0.523283 -0.705378
  C 4.474722 -0.582457 -0.856088
  C 5.146352 -0.776641 -1.995690
  H 4.729323 -1.152812 -2.917112
  O 6.476438 -0.476553 -2.077759
  H 0.617063 0.898472 1.102260
  H 0.470136 -0.755927 0.528640
  H 0.633902 0.561962 -0.625895
  H 3.967976 1.286233 1.192162
  H 3.853980 -0.308353 1.925979
  H 1.763099 0.373851 3.090024
  H 1.933074 1.999386 2.407357
  H 3.992112 0.628210 4.194345
  H 2.869893 1.893104 4.697237
  H 4.132276 2.253844 3.521515
  H 2.458159 -0.833164 -1.552651
  H 5.064185 -0.461118 0.046004
  H 6.640611 0.002935 -1.251687
 23
 14.412809
  C 0.956791 0.239397 0.316283
  C 2.453154 0.057008 0.331939
  C 3.263432 0.504238 1.536268
  C 2.500181 1.079566 2.729835
  C 3.458737 1.465072 3.848622
  C 3.030182 -0.502456 -0.742219
  C 4.448772 -0.572648 -0.871367
  C 5.170418 -0.808394 -1.981523
  H 4.819055 -1.225089 -2.912805
  O 6.481091 -0.392040 -1.974978
  H 0.600585 0.786344 1.178790
  H 0.463305 -0.740941 0.353133
  H 0.639813 0.750083 -0.582026
  H 3.951532 1.278992 1.196145
  H 3.897026 -0.320836 1.889678
  H 1.768588 0.354467 3.097272
  H 1.961894 1.974721 2.417267
  H 3.999229 0.594160 4.219754
  H 2.918075 1.921171 4.669650
  H 4.187715 2.192987 3.488065
  H 2.435956 -0.799890 -1.579114
  H 5.005867 -0.589701 0.067037
  H 6.441445 0.138796 -1.159739
 23
 32.212612
  C 0.996780 0.273439 0.315254
  C 2.477552 0.125664 0.316099
  C 3.293579 0.580055 1.513609
  C 2.504901 1.074132 2.715162
  C 3.449574 1.402176 3.883497
  C 3.055288 -0.418854 -0.751479
  C 4.472802 -0.495483 -0.891844
  C 5.160876 -0.874056 -1.998919
  H 4.847767 -1.516174 -2.804328
  O 6.448419 -0.350988 -2.001469
  H 0.632129 0.922691 1.103980
  H 0.539654 -0.697252 0.460117
  H 0.654631 0.657607 -0.651438
  H 3.987266 1.357859 1.178010
  H 3.876764 -0.285157 1.842067
  H 1.815328 0.298263 3.068145
  H 1.933156 1.966962 2.462357
  H 4.004129 0.530137 4.221437
  H 2.884336 1.791466 4.731425
  H 4.159603 2.167775 3.571558
  H 2.464588 -0.751873 -1.585418
  H 4.994972 -0.579104 0.025914
  H 6.187931 0.189374 -1.228473
 23
 62.135684
  C 0.998853 0.294510 0.293799
  C 2.494316 0.140141 0.321617
  C 3.296156 0.567766 1.529983
  C 2.511630 1.058925 2.745502
  C 3.453468 1.390236 3.899549
  C 3.117704 -0.371883 -0.747485
  C 4.552620 -0.509695 -0.904485
  C 5.207293 -0.916136 -2.071401
  H 4.825413 -1.529346 -2.881457
  O 6.370685 -0.391198 -2.155499
  H 0.630527 0.894857 1.116569
  H 0.517004 -0.682525 0.347014
  H 0.686107 0.763177 -0.638286
  H 3.987783 1.361554 1.223017
  H 3.912972 -0.280081 1.851953
  H 1.808798 0.287524 3.069198
  H 1.944988 1.956506 2.487984
  H 4.013632 0.507790 4.204323
  H 2.892147 1.751976 4.758686
  H 4.163452 2.161444 3.605392
  H 2.532891 -0.648619 -1.614993
  H 5.098824 -0.725024 0.013820
  H 5.817565 0.266677 -1.022697
 23
 35.721103
  C 1.062400 0.284445 0.279104
  C 2.555222 0.127954 0.348168
  C 3.336218 0.590531 1.553487
  C 2.514884 1.049830 2.753876
  C 3.416807 1.415914 3.925175
  C 3.230499 -0.322874 -0.720994
  C 4.711547 -0.511652 -0.910528
  C 5.226127 -0.943499 -2.217069
  H 4.658581 -1.484716 -2.992192
  O 6.333246 -0.513169 -2.438695
  H 0.674250 0.910619 1.072623
  H 0.575494 -0.689345 0.354836
  H 0.775797 0.726611 -0.672040
  H 4.041249 1.371004 1.262587
  H 3.895346 -0.288335 1.902105
  H 1.836716 0.240599 3.032278
  H 1.907558 1.912519 2.471745
  H 4.024292 0.572648 4.243483
  H 2.814959 1.750954 4.765274
  H 4.059395 2.251484 3.653271
  H 2.658111 -0.546708 -1.615212
  H 5.214231 -0.922849 -0.021757
  H 5.611374 0.245107 -0.924575
 23
 12.735840
  C 1.093823 0.293607 0.225571
  C 2.589561 0.201314 0.305749
  C 3.324512 0.605011 1.554286
  C 2.495420 1.029351 2.760842
  C 3.408153 1.385135 3.931660
  C 3.264810 -0.280586 -0.728617
  C 4.752968 -0.469639 -0.873462
  C 5.223486 -0.992429 -2.171975
  H 4.542670 -1.557425 -2.822897
  O 6.325946 -0.672684 -2.533552
  H 0.681602 0.857837 1.047468
  H 0.656197 -0.700088 0.255575
  H 0.786791 0.773806 -0.704761
  H 3.988230 1.439863 1.296352
  H 4.001131 -0.198504 1.846473
  H 1.840339 0.220062 3.082787
  H 1.899074 1.910360 2.531214
  H 3.984110 0.514335 4.251695
  H 2.821379 1.739729 4.773850
  H 4.105299 2.172487 3.652061
  H 2.702342 -0.570899 -1.607571
  H 5.238886 -0.923851 -0.009230
  H 5.352814 0.465733 -0.926684
 23
 5.247525
  C 1.112276 0.265205 0.241832
  C 2.609906 0.184970 0.336617
  C 3.342862 0.618988 1.575823
  C 2.496756 1.053159 2.765187
  C 3.382325 1.409674 3.957931
  C 3.282739 -0.260151 -0.723958
  C 4.758839 -0.479528 -0.858950
  C 5.188838 -0.942810 -2.212171
  H 4.436811 -1.469152 -2.832204
  O 6.276850 -0.675095 -2.642155
  H 0.686084 0.869499 1.032405
  H 0.679403 -0.733268 0.314046
  H 0.815292 0.690394 -0.713165
  H 4.007562 1.445405 1.304514
  H 3.994227 -0.203741 1.895947
  H 1.817368 0.245497 3.050382
  H 1.898979 1.928590 2.500162
  H 3.982914 0.553575 4.262221
  H 2.775038 1.719727 4.803823
  H 4.054113 2.227439 3.704353
  H 2.723749 -0.493892 -1.616724
  H 5.191412 -1.076753 -0.045684
  H 5.330463 0.435685 -0.765832
 23
 2.235519
  C 1.097956 0.247120 0.235765
  C 2.599419 0.170384 0.314977
  C 3.345750 0.611818 1.549067
  C 2.509437 1.089303 2.735610
  C 3.405392 1.463249 3.912502
  C 3.263669 -0.323377 -0.729494
  C 4.746794 -0.503391 -0.822719
  C 5.234236 -0.861743 -2.191745
  H 4.475635 -1.339538 -2.843118
  O 6.347483 -0.660600 -2.585821
  H 0.669385 0.807467 1.059060
  H 0.672281 -0.755452 0.250550
  H 0.793916 0.721349 -0.697060
  H 4.035757 1.415477 1.264397
  H 3.966470 -0.223728 1.883426
  H 1.824282 0.298947 3.047149
  H 1.920576 1.964674 2.450937
  H 3.991433 0.605537 4.236686
  H 2.806651 1.806530 4.754344
  H 4.092099 2.260626 3.632944
  H 2.705140 -0.634990 -1.606306
  H 5.081221 -1.299099 -0.135308
  H 5.294358 0.406093 -0.505771
 23
 2.819301
  C 1.086842 0.270288 0.242273
  C 2.592506 0.133764 0.317654
  C 3.351882 0.547200 1.558845
  C 2.537341 1.111209 2.716227
  C 3.443813 1.468478 3.886130
  C 3.237361 -0.400887 -0.729778
  C 4.714163 -0.647080 -0.810110
  C 5.244723 -0.664811 -2.210329
  H 4.492340 -0.884017 -2.991266
  O 6.395409 -0.457070 -2.495332
  H 0.670152 0.770306 1.109332
  H 0.626265 -0.714754 0.164385
  H 0.805404 0.835460 -0.642935
  H 4.096129 1.297262 1.270919
  H 3.909903 -0.325216 1.925837
  H 1.803483 0.373796 3.049603
  H 2.005866 2.009235 2.395927
  H 3.981277 0.590131 4.237045
  H 2.861638 1.864066 4.710874
  H 4.172082 2.219013 3.590932
  H 2.673204 -0.685991 -1.604877
  H 4.959283 -1.618921 -0.365444
  H 5.270527 0.116698 -0.260892
 23
 5.302921
  C 1.079447 0.243018 0.244431
  C 2.572303 0.092338 0.304102
  C 3.345365 0.506311 1.540821
  C 2.549255 1.136748 2.685751
  C 3.473043 1.515889 3.841206
  C 3.181203 -0.483305 -0.733779
  C 4.634474 -0.768555 -0.826557
  C 5.263375 -0.576645 -2.166714
  H 4.560866 -0.568366 -3.023735
  O 6.451184 -0.394829 -2.327124
  H 0.672321 0.703062 1.132089
  H 0.613299 -0.733600 0.123277
  H 0.797599 0.856383 -0.610652
  H 4.118017 1.221880 1.237277
  H 3.869549 -0.373378 1.936524
  H 1.797055 0.430937 3.052813
  H 2.038404 2.037336 2.335268
  H 3.991901 0.636903 4.219473
  H 2.901842 1.953130 4.658452
  H 4.218844 2.239345 3.517579
  H 2.594405 -0.752268 -1.603596
  H 4.919265 -1.727163 -0.391289
  H 5.171420 -0.086014 -0.182443
 23
 2.119927
  C 1.096855 0.256644 0.236592
  C 2.591558 0.093065 0.323176
  C 3.345744 0.511570 1.563626
  C 2.533402 1.133821 2.697174
  C 3.440890 1.514571 3.862694
  C 3.230766 -0.448262 -0.710152
  C 4.700992 -0.707699 -0.804659
  C 5.235047 -0.595418 -2.203085
  H 4.467315 -0.721582 -2.993283
  O 6.383955 -0.404306 -2.486766
  H 0.675560 0.700612 1.129934
  H 0.623557 -0.711480 0.081892
  H 0.837889 0.888586 -0.611699
  H 4.117311 1.230760 1.268170
  H 3.867093 -0.366612 1.959211
  H 1.782973 0.424041 3.052370
  H 2.022115 2.030472 2.340852
  H 3.958258 0.638160 4.248033
  H 2.859821 1.951796 4.671421
  H 4.187218 2.240440 3.546515
  H 2.659018 -0.753015 -1.577992
  H 4.915325 -1.735898 -0.482390
  H 5.281774 -0.061109 -0.148460
