 32
 0.000000
  C 0.963743 0.142425 0.405671
  C 2.441041 0.132074 0.397623
  C 3.232333 0.602983 1.563335
  C 2.461728 1.099783 2.783972
  C 3.417042 1.544374 3.886839
  C 3.054195 -0.335024 -0.757336
  C 4.433838 -0.418250 -0.974066
  C 5.116133 -0.861764 -2.096881
  C 4.626801 -1.383127 -3.404539
  C 3.136780 -1.507267 -3.701766
  C 2.915546 -2.065643 -5.104638
  O 6.442113 -0.848638 -2.080912
  H 0.534377 0.524181 1.325032
  H 0.579169 -0.866574 0.250496
  H 0.595175 0.756083 -0.417873
  H 3.890353 1.411593 1.225168
  H 3.886291 -0.215692 1.884915
  H 1.821809 0.306634 3.175925
  H 1.826136 1.944906 2.511982
  H 4.050841 0.721100 4.210456
  H 2.856024 1.895684 4.749955
  H 4.055084 2.357781 3.546991
  H 2.394750 -0.652686 -1.547395
  H 5.049574 -0.085035 -0.146203
  H 5.087519 -2.369461 -3.532896
  H 5.081021 -0.750638 -4.176068
  H 2.656838 -0.529178 -3.645492
  H 2.663458 -2.183191 -2.988117
  H 3.351407 -1.413852 -5.858774
  H 1.850540 -2.150763 -5.308069
  H 3.357977 -3.054252 -5.206939
  H 6.801081 -0.515314 -1.237275
 32
 2.153072
  C 1.035612 0.000878 0.392200
  C 2.493133 0.167097 0.394697
  C 3.264053 0.686875 1.559450
  C 2.462676 1.101660 2.789111
  C 3.388444 1.612958 3.887052
  C 3.093100 -0.262455 -0.763532
  C 4.447557 -0.379294 -0.961989
  C 5.088873 -0.910315 -2.063824
  C 4.575126 -1.424304 -3.375998
  C 3.091972 -1.425903 -3.723962
  C 2.890282 -1.994813 -5.125964
  O 6.400547 -1.031578 -2.006071
  H 0.540389 0.264514 1.323943
  H 0.860584 -1.046059 0.150180
  H 0.587435 0.581181 -0.423685
  H 3.853249 1.547356 1.225195
  H 3.990966 -0.073289 1.863244
  H 1.897756 0.251313 3.175192
  H 1.756410 1.892063 2.528774
  H 4.092347 0.842427 4.193354
  H 2.812561 1.907161 4.760718
  H 3.951845 2.479852 3.549285
  H 2.430984 -0.594859 -1.545806
  H 5.091076 -0.073976 -0.141841
  H 4.955828 -2.446673 -3.467722
  H 5.111337 -0.857717 -4.144449
  H 2.696069 -0.410137 -3.705562
  H 2.536894 -2.048742 -3.022294
  H 3.413768 -1.397127 -5.868425
  H 1.834188 -2.000184 -5.382226
  H 3.257386 -3.016441 -5.188535
  H 6.794442 -0.714634 -1.168230
 32
 4.330635
  C 1.131276 -0.323244 0.512966
  C 2.528177 0.141488 0.416576
  C 3.252060 0.807198 1.516362
  C 2.454360 1.109907 2.775006
  C 3.327993 1.812887 3.809860
  C 3.138939 -0.232766 -0.769968
  C 4.494739 -0.377587 -0.966700
  C 5.069711 -1.069817 -2.022402
  C 4.526743 -1.520302 -3.328374
  C 3.094464 -1.248001 -3.763866
  C 2.890217 -1.752016 -5.190918
  O 6.313560 -1.450180 -1.902867
  H 0.672876 -0.198054 1.484685
  H 1.165025 -1.363334 0.228887
  H 0.513466 0.174685 -0.241290
  H 3.670884 1.742564 1.132181
  H 4.113305 0.195506 1.791116
  H 2.071286 0.181906 3.210636
  H 1.604701 1.753412 2.533538
  H 4.175764 1.188654 4.093999
  H 2.752486 2.027701 4.709003
  H 3.709996 2.756863 3.421553
  H 2.485563 -0.617182 -1.537110
  H 5.159034 -0.091100 -0.159465
  H 4.719253 -2.594019 -3.391568
  H 5.197135 -1.078395 -4.070092
  H 2.884684 -0.176118 -3.741095
  H 2.388495 -1.775769 -3.122617
  H 3.561105 -1.246455 -5.884017
  H 1.868208 -1.564931 -5.514172
  H 3.075092 -2.823646 -5.256412
  H 6.755294 -1.165239 -1.098297
 32
 7.920330
  C 1.246831 -0.633055 0.688922
  C 2.534348 0.036996 0.448721
  C 3.228541 0.864594 1.459794
  C 2.483760 1.133453 2.763434
  C 3.310535 2.031104 3.676518
  C 3.093355 -0.282854 -0.770122
  C 4.445977 -0.405441 -0.989161
  C 4.982846 -1.227076 -1.961714
  C 4.458722 -1.623561 -3.298706
  C 3.133190 -1.088345 -3.827197
  C 2.974368 -1.469372 -5.297179
  O 6.130292 -1.803658 -1.716746
  H 0.885633 -0.542735 1.708611
  H 1.388340 -1.693847 0.418601
  H 0.483148 -0.245751 0.009983
  H 3.483125 1.821555 0.995223
  H 4.189394 0.399604 1.704648
  H 2.283610 0.198044 3.282576
  H 1.532151 1.622383 2.556916
  H 4.259611 1.564691 3.925449
  H 2.777697 2.222138 4.603602
  H 3.512009 2.988103 3.202138
  H 2.428420 -0.721741 -1.498475
  H 5.118239 -0.090688 -0.200102
  H 4.462045 -2.717527 -3.345191
  H 5.248625 -1.316041 -3.997878
  H 3.100535 -0.002991 -3.738022
  H 2.291986 -1.519808 -3.283204
  H 3.774193 -1.046263 -5.900476
  H 2.029641 -1.097042 -5.683506
  H 2.988133 -2.549081 -5.421174
  H 6.586426 -1.519955 -0.900221
 32
 11.930915
  C 1.381335 -0.866782 0.823843
  C 2.549516 -0.050020 0.473540
  C 3.207775 0.888235 1.408592
  C 2.499513 1.152718 2.734819
  C 3.267771 2.182907 3.552592
  C 3.066293 -0.350746 -0.772426
  C 4.417075 -0.388767 -1.062794
  C 4.908757 -1.340462 -1.947558
  C 4.363500 -1.734114 -3.263888
  C 3.206426 -0.928420 -3.847233
  C 3.053600 -1.238000 -5.334607
  O 5.964145 -2.027136 -1.596193
  H 1.105100 -0.799270 1.870141
  H 1.639792 -1.898846 0.553120
  H 0.513891 -0.598738 0.219214
  H 3.346763 1.843724 0.886371
  H 4.218907 0.530671 1.632436
  H 2.425157 0.233078 3.316078
  H 1.492079 1.526694 2.553116
  H 4.272339 1.832200 3.775397
  H 2.761969 2.372657 4.495202
  H 3.343687 3.125595 3.016785
  H 2.409133 -0.893104 -1.436703
  H 5.108482 0.008365 -0.327507
  H 4.130758 -2.804178 -3.258194
  H 5.218616 -1.645578 -3.948990
  H 3.394909 0.137545 -3.719263
  H 2.265122 -1.175372 -3.360188
  H 3.954056 -0.974900 -5.885167
  H 2.225995 -0.672738 -5.755974
  H 2.854683 -2.295779 -5.490393
  H 6.410166 -1.714315 -0.778777
 32
 15.652749
  C 1.565874 -1.088585 0.981609
  C 2.582523 -0.124266 0.521637
  C 3.183187 0.928068 1.369682
  C 2.505195 1.189113 2.715309
  C 3.179516 2.351390 3.439947
  C 3.055926 -0.444474 -0.735816
  C 4.389677 -0.464099 -1.070581
  C 4.815656 -1.458657 -1.946035
  C 4.226847 -1.797138 -3.258362
  C 3.301156 -0.758417 -3.887619
  C 3.149508 -1.025244 -5.382637
  O 5.799270 -2.226937 -1.575991
  H 1.382993 -1.042117 2.046988
  H 1.957315 -2.076621 0.689244
  H 0.616062 -0.953933 0.461233
  H 3.199472 1.860326 0.792598
  H 4.235637 0.686141 1.557712
  H 2.564789 0.301835 3.349717
  H 1.451377 1.430689 2.560725
  H 4.229524 2.134201 3.633414
  H 2.692879 2.537008 4.395786
  H 3.120312 3.264888 2.849642
  H 2.396245 -1.043722 -1.349274
  H 5.109612 -0.045142 -0.376133
  H 3.747073 -2.779602 -3.214700
  H 5.086352 -1.942497 -3.924837
  H 3.715812 0.239713 -3.740519
  H 2.309187 -0.782870 -3.438545
  H 4.109518 -0.963475 -5.891406
  H 2.483392 -0.292415 -5.832446
  H 2.732395 -2.014835 -5.558795
  H 6.261807 -1.938997 -0.760304
 32
 20.384883
  C 1.714100 -1.180307 1.009041
  C 2.597100 -0.099612 0.521830
  C 3.162203 0.975117 1.364265
  C 2.528416 1.163280 2.743362
  C 3.144692 2.360257 3.457141
  C 3.015116 -0.361326 -0.770404
  C 4.342411 -0.367861 -1.117661
  C 4.733911 -1.422699 -1.937526
  C 4.105734 -1.804494 -3.217655
  C 3.431574 -0.655965 -3.979898
  C 3.210775 -1.044037 -5.441915
  O 5.663383 -2.221667 -1.508197
  H 1.567562 -1.159044 2.077869
  H 2.219460 -2.119887 0.698406
  H 0.735683 -1.157875 0.522721
  H 3.089373 1.917210 0.805412
  H 4.236887 0.804243 1.501878
  H 2.683571 0.273602 3.359161
  H 1.453896 1.326017 2.639528
  H 4.215757 2.219905 3.600341
  H 2.689145 2.494387 4.435696
  H 2.991361 3.274402 2.886813
  H 2.353671 -0.968982 -1.373024
  H 5.067747 0.079795 -0.451881
  H 3.411141 -2.636993 -3.070300
  H 4.909267 -2.221113 -3.834188
  H 4.063783 0.232017 -3.935321
  H 2.471820 -0.402983 -3.543366
  H 4.157107 -1.255361 -5.937732
  H 2.722324 -0.232775 -5.980309
  H 2.580083 -1.929028 -5.517478
  H 6.120254 -1.917816 -0.699978
 32
 25.386755
  C 1.871302 -1.217981 0.989996
  C 2.613968 -0.025606 0.511854
  C 3.148930 1.043640 1.376683
  C 2.549072 1.140642 2.779323
  C 3.105390 2.351925 3.518719
  C 2.979604 -0.221974 -0.813602
  C 4.309410 -0.297658 -1.141259
  C 4.661087 -1.387023 -1.931521
  C 4.001583 -1.796155 -3.194691
  C 3.550960 -0.623024 -4.080736
  C 3.247706 -1.108628 -5.497304
  O 5.547376 -2.217648 -1.466719
  H 1.764399 -1.245562 2.070338
  H 2.478346 -2.078910 0.629738
  H 0.883420 -1.299777 0.538304
  H 3.010488 2.000759 0.859311
  H 4.236451 0.926847 1.474022
  H 2.781999 0.246506 3.354977
  H 1.466746 1.232275 2.711958
  H 4.185677 2.280621 3.625822
  H 2.671971 2.420160 4.514270
  H 2.873663 3.273188 2.987540
  H 2.296085 -0.791867 -1.422300
  H 5.040152 0.102063 -0.452329
  H 3.153820 -2.451669 -2.982447
  H 4.717710 -2.412125 -3.740834
  H 4.339548 0.128477 -4.119951
  H 2.662567 -0.150519 -3.676359
  H 4.133521 -1.541240 -5.959313
  H 2.914314 -0.279465 -6.118485
  H 2.463644 -1.863341 -5.489240
  H 6.018416 -1.909281 -0.668415
 32
 31.437543
  C 1.991950 -1.217956 0.937171
  C 2.624554 0.046261 0.479959
  C 3.138873 1.104568 1.368927
  C 2.594443 1.108660 2.797675
  C 3.107916 2.322888 3.563178
  C 2.959967 -0.097272 -0.861652
  C 4.290853 -0.219800 -1.164662
  C 4.589724 -1.358001 -1.906711
  C 3.938000 -1.781279 -3.169174
  C 3.624000 -0.625210 -4.132240
  C 3.283220 -1.164612 -5.522532
  O 5.390845 -2.229461 -1.366942
  H 1.916244 -1.279996 2.019272
  H 2.651037 -2.028469 0.543550
  H 0.998688 -1.364637 0.503636
  H 2.926006 2.072415 0.900735
  H 4.233239 1.048997 1.416424
  H 2.906084 0.206398 3.327330
  H 1.504532 1.136283 2.777483
  H 4.195079 2.315112 3.623112
  H 2.714558 2.325741 4.576997
  H 2.798131 3.247589 3.080053
  H 2.261391 -0.634334 -1.484164
  H 5.023430 0.147064 -0.462566
  H 3.023641 -2.339703 -2.953430
  H 4.610610 -2.492018 -3.653116
  H 4.489810 0.036429 -4.205341
  H 2.784763 -0.036987 -3.768362
  H 4.121672 -1.715479 -5.942800
  H 3.045234 -0.346131 -6.198378
  H 2.423605 -1.830838 -5.480587
  H 5.864029 -1.913121 -0.572027
 32
 37.830111
  C 2.088091 -1.197278 0.857958
  C 2.635216 0.130801 0.444910
  C 3.131152 1.167183 1.362684
  C 2.650831 1.068983 2.812393
  C 3.125232 2.272994 3.617364
  C 2.944565 0.041067 -0.916872
  C 4.276570 -0.128769 -1.207704
  C 4.526076 -1.324920 -1.878797
  C 3.887013 -1.776609 -3.140721
  C 3.704303 -0.653522 -4.174885
  C 3.307870 -1.232706 -5.528719
  O 5.240707 -2.221628 -1.255363
  H 2.019457 -1.298731 1.935891
  H 2.807065 -1.955114 0.432859
  H 1.109163 -1.400717 0.424548
  H 2.844319 2.139638 0.955415
  H 4.227045 1.176612 1.359271
  H 3.037864 0.164391 3.280348
  H 1.560474 1.031011 2.839633
  H 4.210504 2.329465 3.630586
  H 2.778737 2.201713 4.646532
  H 2.739386 3.199167 3.196651
  H 2.226651 -0.465186 -1.549853
  H 5.011473 0.227674 -0.498099
  H 2.921731 -2.245077 -2.931577
  H 4.516589 -2.565801 -3.557132
  H 4.634677 -0.100628 -4.279607
  H 2.935408 0.047365 -3.851099
  H 4.082062 -1.901860 -5.908582
  H 3.165122 -0.433441 -6.256359
  H 2.377286 -1.794130 -5.453306
  H 5.722860 -1.891446 -0.470062
 32
 45.042308
  C 2.196231 -1.167956 0.750387
  C 2.667399 0.194837 0.393342
  C 3.141058 1.213712 1.343790
  C 2.705472 1.029375 2.794821
  C 3.140184 2.219903 3.639714
  C 2.973177 0.154855 -0.974131
  C 4.305269 -0.059592 -1.241094
  C 4.480439 -1.305044 -1.845054
  C 3.833487 -1.771658 -3.093446
  C 3.753216 -0.683415 -4.170897
  C 3.318872 -1.279699 -5.505991
  O 5.081462 -2.220558 -1.132669
  H 2.131806 -1.308282 1.825850
  H 2.942472 -1.876340 0.304349
  H 1.227049 -1.406250 0.310443
  H 2.793265 2.191245 0.985860
  H 4.236087 1.282105 1.314698
  H 3.150667 0.124102 3.213967
  H 1.619144 0.935045 2.846587
  H 4.223265 2.331535 3.628514
  H 2.825006 2.086739 4.674086
  H 2.696672 3.143158 3.269198
  H 2.248645 -0.316948 -1.626253
  H 5.037338 0.269760 -0.516099
  H 2.829648 -2.159097 -2.887186
  H 4.410253 -2.623013 -3.460388
  H 4.732411 -0.211875 -4.287852
  H 3.043971 0.090288 -3.879435
  H 4.034397 -2.023783 -5.850447
  H 3.249743 -0.502029 -6.264247
  H 2.345151 -1.756571 -5.419486
  H 5.572921 -1.884644 -0.356369
 32
 53.662802
  C 2.273459 -1.154625 0.688701
  C 2.686122 0.252420 0.362067
  C 3.156881 1.249290 1.335994
  C 2.775903 0.989701 2.794135
  C 3.196022 2.162964 3.676549
  C 2.954779 0.262847 -1.019632
  C 4.289592 0.029527 -1.288538
  C 4.390479 -1.263207 -1.818841
  C 3.771031 -1.758527 -3.070458
  C 3.825007 -0.724912 -4.202643
  C 3.375400 -1.345869 -5.521147
  O 4.879324 -2.174634 -1.007693
  H 2.214032 -1.317554 1.760761
  H 3.054561 -1.836854 0.227385
  H 1.316614 -1.420579 0.244287
  H 2.759434 2.223717 1.031210
  H 4.246728 1.363847 1.274120
  H 3.266432 0.086190 3.160291
  H 1.695150 0.852767 2.875985
  H 4.269777 2.315540 3.636209
  H 2.922110 1.977164 4.708158
  H 2.709454 3.080359 3.361217
  H 2.219760 -0.182642 -1.675277
  H 5.031381 0.361797 -0.569612
  H 2.730687 -2.057744 -2.900882
  H 4.300328 -2.671082 -3.361377
  H 4.843482 -0.353178 -4.307964
  H 3.183575 0.124457 -3.969315
  H 4.028321 -2.170758 -5.805076
  H 3.402271 -0.604897 -6.317232
  H 2.356565 -1.726177 -5.444827
  H 5.394388 -1.819102 -0.255200
 32
 63.313037
  C 2.312732 -1.133130 0.625430
  C 2.711271 0.289972 0.330387
  C 3.191995 1.269208 1.320005
  C 2.841565 0.970473 2.778249
  C 3.270291 2.126179 3.682459
  C 2.973350 0.319826 -1.058619
  C 4.310677 0.061498 -1.308838
  C 4.353706 -1.255955 -1.800750
  C 3.760574 -1.758120 -3.058103
  C 3.878296 -0.752712 -4.206561
  C 3.418867 -1.378967 -5.521392
  O 4.659844 -2.166780 -0.888570
  H 2.238816 -1.307883 1.689658
  H 3.109695 -1.805269 0.163434
  H 1.359816 -1.401244 0.162769
  H 2.774865 2.243483 1.047912
  H 4.279754 1.401388 1.240752
  H 3.344052 0.064725 3.111783
  H 1.766825 0.823443 2.876862
  H 4.342775 2.289294 3.624105
  H 3.018314 1.911856 4.717578
  H 2.769531 3.047769 3.399785
  H 2.231734 -0.096075 -1.725265
  H 5.047604 0.377875 -0.581388
  H 2.706446 -2.026047 -2.918276
  H 4.272533 -2.690921 -3.312506
  H 4.914845 -0.429651 -4.303494
  H 3.272716 0.129350 -3.998112
  H 4.034216 -2.238669 -5.778076
  H 3.493646 -0.657709 -6.331002
  H 2.386859 -1.706551 -5.455006
  H 5.209466 -1.835353 -0.151953
 32
 74.575382
  C 2.337914 -1.100005 0.568282
  C 2.744702 0.333264 0.303666
  C 3.241239 1.287029 1.311040
  C 2.901723 0.957828 2.761466
  C 3.346987 2.087681 3.687496
  C 3.011038 0.378223 -1.087395
  C 4.339301 0.071011 -1.313578
  C 4.316613 -1.257659 -1.788981
  C 3.749662 -1.758122 -3.051746
  C 3.928474 -0.785471 -4.215327
  C 3.464889 -1.420182 -5.525084
  O 4.483233 -2.154274 -0.805014
  H 2.245693 -1.289434 1.629869
  H 3.154957 -1.771473 0.095982
  H 1.391532 -1.354604 0.084345
  H 2.823988 2.270115 1.065440
  H 4.326809 1.416855 1.226503
  H 3.400798 0.038563 3.070061
  H 1.825009 0.817269 2.865913
  H 4.422245 2.244538 3.622672
  H 3.102326 1.850540 4.720850
  H 2.849976 3.020525 3.430583
  H 2.259646 0.008928 -1.771862
  H 5.080579 0.358188 -0.580120
  H 2.684862 -2.002682 -2.937080
  H 4.245450 -2.711103 -3.274235
  H 4.982032 -0.508237 -4.301119
  H 3.357871 0.126847 -4.038487
  H 4.045016 -2.311731 -5.751082
  H 3.586580 -0.721575 -6.349032
  H 2.419188 -1.699542 -5.471740
  H 5.104342 -1.866826 -0.104434
