 22
 0.000000
  H 1.406534 0.058007 0.122804
  C 2.481560 0.072831 0.033957
  C 3.252335 -0.008382 1.322053
  C 2.363165 -0.093666 2.557232
  H 2.972772 -0.148000 3.455400
  C 3.074424 0.141370 -1.162145
  C 2.374400 0.192452 -2.495505
  C 0.851122 0.205539 -2.452184
  H 0.457127 0.240832 -3.464675
  C 4.534997 0.142862 -1.264354
  C 5.255836 0.199858 -2.376589
  H 6.333306 0.194762 -2.355475
  H 3.894182 0.873198 1.416430
  H 3.911513 -0.886367 1.290545
  H 1.731565 -0.979081 2.515797
  H 1.721822 0.782612 2.628600
  H 2.701079 -0.671522 -3.081618
  H 2.718425 1.085788 -3.024689
  H 0.485650 1.076002 -1.911690
  H 0.469218 -0.690080 -1.967041
  H 5.080950 0.091545 -0.333932
  H 4.844061 0.254514 -3.370170
 22
 -0.755504
  H 1.484313 0.270865 0.093420
  C 2.560447 0.225422 0.024554
  C 3.269241 0.154258 1.346437
  C 2.317981 -0.230199 2.474755
  H 2.850379 -0.280675 3.421720
  C 3.148284 0.199622 -1.174972
  C 2.384529 0.182350 -2.477328
  C 0.867850 0.263039 -2.357573
  H 0.420705 0.234109 -3.348765
  C 4.602394 0.186827 -1.300345
  C 5.297435 0.080980 -2.426588
  H 6.374369 0.093945 -2.418311
  H 3.723453 1.123891 1.577233
  H 4.073267 -0.584246 1.285264
  H 1.871170 -1.202913 2.280327
  H 1.519495 0.502830 2.569703
  H 2.645400 -0.739612 -3.005320
  H 2.734435 1.018149 -3.090070
  H 0.565034 1.189726 -1.875530
  H 0.477181 -0.575193 -1.785510
  H 5.152787 0.293603 -0.376127
  H 4.843961 -0.024880 -3.396641
 22
 0.008189
  H 1.483783 0.534939 0.103463
  C 2.552940 0.399832 0.039604
  C 3.253554 0.287972 1.362166
  C 2.345054 -0.367380 2.399951
  H 2.864245 -0.469184 3.350523
  C 3.138202 0.255585 -1.152879
  C 2.376709 0.178866 -2.455222
  C 0.861055 0.283882 -2.339902
  H 0.410372 0.180215 -3.324862
  C 4.593073 0.217180 -1.287668
  C 5.278485 -0.059531 -2.392108
  H 6.355175 -0.026628 -2.398769
  H 3.557304 1.274934 1.723795
  H 4.141199 -0.332412 1.224525
  H 2.041934 -1.357145 2.065698
  H 1.450379 0.230846 2.560793
  H 2.624446 -0.777249 -2.924681
  H 2.738078 0.970838 -3.117498
  H 0.567550 1.249127 -1.933572
  H 0.465085 -0.501945 -1.700861
  H 5.152353 0.481376 -0.400784
  H 4.815247 -0.330127 -3.324900
 22
 1.640950
  H 1.487275 0.814223 0.107768
  C 2.537806 0.570785 0.052697
  C 3.230177 0.407613 1.372900
  C 2.394077 -0.495188 2.282344
  H 2.913583 -0.671944 3.221641
  C 3.114393 0.307506 -1.123221
  C 2.360021 0.167730 -2.424711
  C 0.844414 0.283617 -2.316953
  H 0.390690 0.096839 -3.288133
  C 4.569994 0.244570 -1.264209
  C 5.246593 -0.201058 -2.317247
  H 6.321996 -0.147235 -2.347730
  H 3.388004 1.367712 1.869184
  H 4.179734 -0.092141 1.175823
  H 2.215888 -1.453561 1.799961
  H 1.432092 -0.036889 2.503303
  H 2.604199 -0.815545 -2.835112
  H 2.727294 0.916958 -3.131959
  H 0.551671 1.279997 -1.993778
  H 0.451170 -0.443651 -1.610416
  H 5.137474 0.659403 -0.442044
  H 4.777351 -0.634624 -3.183178
 22
 7.349085
  H 1.569659 1.197316 0.085244
  C 2.551679 0.750843 0.056880
  C 3.229800 0.483647 1.367554
  C 2.397049 -0.551264 2.137316
  H 2.930120 -0.869602 3.030723
  C 3.109726 0.329812 -1.086341
  C 2.350566 0.116400 -2.375470
  C 0.835038 0.214203 -2.248257
  H 0.364129 -0.066070 -3.188209
  C 4.563964 0.306101 -1.247980
  C 5.242217 -0.234221 -2.252100
  H 6.309267 -0.111213 -2.329390
  H 3.365841 1.369338 1.985112
  H 4.152648 -0.028683 1.087379
  H 2.210330 -1.421988 1.513602
  H 1.438639 -0.134087 2.441197
  H 2.607520 -0.884434 -2.730496
  H 2.695737 0.828558 -3.130482
  H 0.528888 1.229499 -2.007087
  H 0.472373 -0.451808 -1.468412
  H 5.124296 0.824669 -0.481187
  H 4.779402 -0.801970 -3.040221
 22
 19.226751
  H 1.686597 1.511387 0.051020
  C 2.567278 0.886950 0.057815
  C 3.222739 0.498253 1.352598
  C 2.352542 -0.553713 2.064952
  H 2.917122 -0.998148 2.881309
  C 3.118663 0.344965 -1.055397
  C 2.359430 0.044722 -2.330850
  C 0.843375 0.112373 -2.182778
  H 0.362209 -0.198920 -3.107559
  C 4.570885 0.338779 -1.224695
  C 5.249089 -0.160563 -2.252410
  H 6.308561 0.004978 -2.345680
  H 3.449076 1.318042 2.023543
  H 4.017491 -0.136358 0.929958
  H 2.056262 -1.334602 1.370281
  H 1.449473 -0.108625 2.482681
  H 2.644333 -0.964238 -2.638428
  H 2.670372 0.728444 -3.127226
  H 0.520706 1.126495 -1.960471
  H 0.506956 -0.539635 -1.379646
  H 5.123331 0.881177 -0.468679
  H 4.797402 -0.751311 -3.029137
 22
 38.829280
  H 1.831328 1.782122 -0.040853
  C 2.585039 1.013541 0.028684
  C 3.175702 0.519432 1.320778
  C 2.329800 -0.588654 1.987648
  H 2.936867 -1.094063 2.733960
  C 3.131020 0.340706 -1.023209
  C 2.364828 -0.026511 -2.279733
  C 0.850340 0.044453 -2.113240
  H 0.354829 -0.326602 -3.007879
  C 4.575939 0.405502 -1.210224
  C 5.268257 -0.106667 -2.225074
  H 6.320887 0.093508 -2.327061
  H 3.465333 1.268199 2.046633
  H 3.836501 -0.188915 0.764813
  H 1.979197 -1.310783 1.257760
  H 1.458394 -0.173255 2.499090
  H 2.647642 -1.051322 -2.533962
  H 2.667418 0.610771 -3.118395
  H 0.525633 1.066993 -1.943864
  H 0.531079 -0.559845 -1.266445
  H 5.109022 0.983250 -0.465947
  H 4.827014 -0.706946 -3.000067
 22
 66.168118
  H 1.936499 1.981624 -0.112369
  C 2.594564 1.136766 0.014466
  C 3.077606 0.569719 1.284322
  C 2.344093 -0.637814 1.908451
  H 3.013199 -1.166442 2.581007
  C 3.139144 0.350448 -0.979000
  C 2.375097 -0.076380 -2.220676
  C 0.862281 0.016172 -2.055758
  H 0.362378 -0.384694 -2.935110
  C 4.584614 0.442195 -1.183083
  C 5.276930 -0.087419 -2.190744
  H 6.329045 0.111704 -2.298259
  H 3.371147 1.269765 2.063147
  H 3.664184 -0.222691 0.545013
  H 1.976972 -1.328971 1.153864
  H 1.485567 -0.296927 2.495266
  H 2.648111 -1.112362 -2.435830
  H 2.685695 0.525786 -3.080891
  H 0.548571 1.048611 -1.928560
  H 0.536174 -0.549600 -1.185359
  H 5.109497 1.045867 -0.453442
  H 4.835100 -0.708766 -2.949059
 22
 80.653673
  H 2.028111 2.075061 -0.121921
  C 2.614814 1.183996 0.039917
  C 2.978502 0.614465 1.271643
  C 2.313612 -0.641103 1.830260
  H 2.986707 -1.174389 2.499643
  C 3.181118 0.331334 -0.959351
  C 2.378082 -0.103462 -2.173374
  C 0.872451 -0.010058 -1.957336
  H 0.343241 -0.404557 -2.822408
  C 4.637035 0.442702 -1.190936
  C 5.312131 -0.075020 -2.211237
  H 6.368659 0.100005 -2.316907
  H 3.210133 1.291497 2.104141
  H 3.627880 -0.292227 0.283664
  H 1.983207 -1.324722 1.050671
  H 1.438752 -0.339806 2.412090
  H 2.640777 -1.138303 -2.408139
  H 2.663439 0.506862 -3.035058
  H 0.564166 1.022030 -1.812930
  H 0.573806 -0.581299 -1.080454
  H 5.169232 1.036198 -0.457008
  H 4.855412 -0.681009 -2.973298
 22
 67.668144
  H 2.135086 2.138583 -0.123316
  C 2.649950 1.212714 0.077731
  C 2.880161 0.667230 1.286058
  C 2.279425 -0.627771 1.778340
  H 2.959990 -1.166963 2.440543
  C 3.224349 0.288403 -0.935718
  C 2.383982 -0.132292 -2.128347
  C 0.886293 -0.032906 -1.867244
  H 0.330257 -0.419551 -2.718020
  C 4.696747 0.428348 -1.201697
  C 5.351250 -0.060586 -2.241293
  H 6.407337 0.103203 -2.354183
  H 3.070922 1.311178 2.153248
  H 3.586610 -0.339218 0.063206
  H 1.987098 -1.295840 0.968042
  H 1.389186 -0.371594 2.355586
  H 2.628137 -1.167542 -2.382466
  H 2.652732 0.484757 -2.988163
  H 0.587562 0.999185 -1.707482
  H 0.610123 -0.607560 -0.985475
  H 5.236999 1.007405 -0.460042
  H 4.882198 -0.651322 -3.003760
 22
 45.817578
  H 2.283917 2.153161 -0.156582
  C 2.729860 1.204321 0.091073
  C 2.827308 0.688201 1.327919
  C 2.221669 -0.604885 1.801046
  H 2.858193 -1.130733 2.515711
  C 3.259131 0.226130 -0.932047
  C 2.392372 -0.162448 -2.117871
  C 0.900233 -0.054828 -1.824160
  H 0.323802 -0.403025 -2.678766
  C 4.727022 0.417955 -1.238770
  C 5.356069 0.006862 -2.324958
  H 6.415128 0.162187 -2.444309
  H 2.939829 1.345558 2.197403
  H 3.535699 -0.503576 -0.101081
  H 1.984754 -1.288592 0.988566
  H 1.298807 -0.337666 2.313896
  H 2.620839 -1.191882 -2.406219
  H 2.647550 0.479100 -2.964614
  H 0.616807 0.974673 -1.621714
  H 0.631982 -0.659238 -0.960765
  H 5.274554 0.955955 -0.474101
  H 4.872997 -0.559180 -3.101701
 22
 26.993262
  H 2.452970 2.102818 -0.230370
  C 2.793965 1.129865 0.084462
  C 2.762954 0.712787 1.347161
  C 2.218883 -0.588957 1.861102
  H 2.844585 -1.027534 2.640525
  C 3.276272 0.115372 -0.926225
  C 2.395367 -0.184359 -2.132003
  C 0.908794 -0.049496 -1.820560
  H 0.315045 -0.337061 -2.685820
  C 4.729821 0.369893 -1.248443
  C 5.343307 0.047415 -2.356850
  H 6.391961 0.249174 -2.492765
  H 2.802271 1.424565 2.172501
  H 3.447223 -0.717985 -0.213851
  H 2.070680 -1.332735 1.081712
  H 1.252635 -0.355667 2.306169
  H 2.593517 -1.201113 -2.478709
  H 2.662316 0.498933 -2.941467
  H 0.657910 0.975624 -1.560627
  H 0.631007 -0.689209 -0.985723
  H 5.276968 0.864585 -0.456050
  H 4.849907 -0.451401 -3.172238
 22
 13.793586
  H 2.633353 2.064171 -0.292590
  C 2.815666 1.063385 0.070535
  C 2.655229 0.743335 1.346565
  C 2.241669 -0.582994 1.912974
  H 2.884390 -0.894316 2.737421
  C 3.275614 0.026194 -0.922413
  C 2.389595 -0.167610 -2.151864
  C 0.905806 -0.039447 -1.824125
  H 0.305550 -0.245020 -2.708137
  C 4.726754 0.301777 -1.240699
  C 5.339466 0.060277 -2.384387
  H 6.390113 0.262466 -2.509828
  H 2.590913 1.499806 2.124473
  H 3.357795 -0.888553 -0.309081
  H 2.214303 -1.381794 1.177369
  H 1.236045 -0.451335 2.312020
  H 2.572380 -1.159025 -2.571738
  H 2.661868 0.571578 -2.908371
  H 0.668293 0.962352 -1.476072
  H 0.623898 -0.745669 -1.046110
  H 5.283261 0.722566 -0.412160
  H 4.836016 -0.357563 -3.239090
 22
 9.008873
  H 2.829399 2.033369 -0.340922
  C 2.863499 1.024437 0.043601
  C 2.574377 0.774515 1.310124
  C 2.251298 -0.549188 1.935631
  H 2.882424 -0.742630 2.803780
  C 3.282444 -0.059148 -0.923082
  C 2.382300 -0.204799 -2.146867
  C 0.903042 -0.048428 -1.812579
  H 0.297483 -0.176331 -2.708298
  C 4.733441 0.208813 -1.227010
  C 5.325606 0.157060 -2.404781
  H 6.374371 0.364238 -2.513774
  H 2.485837 1.569600 2.041200
  H 3.278819 -0.962610 -0.294210
  H 2.320463 -1.390928 1.253892
  H 1.219453 -0.494713 2.286421
  H 2.538672 -1.187615 -2.597972
  H 2.667693 0.542225 -2.890672
  H 0.700934 0.938982 -1.406195
  H 0.596676 -0.788106 -1.077361
  H 5.305802 0.445443 -0.337554
  H 4.793945 -0.089608 -3.308682
 22
 3.162782
  H 3.232918 1.991246 -0.289619
  C 3.005606 0.993542 0.067162
  C 2.489073 0.848211 1.277164
  C 2.091035 -0.420584 1.958112
  H 2.669972 -0.546548 2.874005
  C 3.343832 -0.094076 -0.916432
  C 2.396189 -0.048290 -2.122470
  C 0.944166 -0.256555 -1.712976
  H 0.297926 -0.242666 -2.588458
  C 4.796989 0.061747 -1.279065
  C 5.313979 0.165620 -2.488766
  H 6.375758 0.274886 -2.634895
  H 2.338240 1.729256 1.889539
  H 3.240311 -1.068475 -0.424303
  H 2.237343 -1.294975 1.331642
  H 1.039385 -0.369789 2.239453
  H 2.682568 -0.830185 -2.828262
  H 2.498819 0.918216 -2.622396
  H 0.621534 0.527606 -1.031972
  H 0.821653 -1.215195 -1.212507
  H 5.452691 0.094899 -0.415880
  H 4.717992 0.146689 -3.384385
