 32
 0.000000
  C 0.983575 0.134803 0.386678
  C 2.460951 0.140195 0.399644
  C 3.234683 0.611656 1.573007
  C 2.448824 1.099301 2.787116
  C 3.394679 1.545572 3.897730
  C 3.081586 -0.323379 -0.754571
  C 4.457978 -0.411212 -0.973713
  C 5.125625 -0.864880 -2.104584
  C 4.614873 -1.386164 -3.403838
  C 3.122672 -1.501137 -3.691384
  C 2.899187 -2.063404 -5.092789
  O 6.450062 -0.866083 -2.107960
  H 0.540793 0.503488 1.304712
  H 0.617989 -0.878409 0.214488
  H 0.617652 0.747296 -0.438466
  H 3.892198 1.424605 1.244121
  H 3.892433 -0.202713 1.897862
  H 1.811281 0.300820 3.171350
  H 1.811113 1.941587 2.512242
  H 4.030635 0.724689 4.222494
  H 2.827282 1.891314 4.758621
  H 4.030409 2.363123 3.564277
  H 2.421850 -0.640470 -1.543924
  H 5.086425 -0.082158 -0.154069
  H 5.069535 -2.375263 -3.532497
  H 5.070012 -0.760654 -4.180514
  H 2.648916 -0.520234 -3.637875
  H 2.648402 -2.172738 -2.974766
  H 3.338652 -1.416211 -5.848485
  H 1.834452 -2.145240 -5.297568
  H 3.338170 -3.053687 -5.191427
  H 6.827824 -0.531164 -1.272792
 32
 -0.109618
  C 0.954804 0.298052 0.354864
  C 2.425650 0.193853 0.375519
  C 3.223120 0.591679 1.559310
  C 2.465368 1.064033 2.798029
  C 3.442174 1.401412 3.921648
  C 3.035853 -0.288449 -0.780442
  C 4.412036 -0.392072 -0.976534
  C 5.102580 -0.787790 -2.117500
  C 4.613299 -1.343171 -3.409045
  C 3.129660 -1.550967 -3.676655
  C 2.937270 -2.183513 -5.055824
  O 6.418578 -0.691305 -2.130190
  H 0.544234 0.752616 1.247001
  H 0.518341 -0.696039 0.236313
  H 0.632906 0.866635 -0.518264
  H 3.912092 1.390409 1.257080
  H 3.856150 -0.256248 1.850097
  H 1.788088 0.284232 3.145357
  H 1.878390 1.955408 2.568149
  H 4.032367 0.531139 4.199515
  H 2.902349 1.736527 4.805509
  H 4.121135 2.196933 3.621921
  H 2.376248 -0.574738 -1.577840
  H 5.042179 -0.074984 -0.152436
  H 5.127502 -2.302337 -3.529368
  H 5.031438 -0.707177 -4.195168
  H 2.605968 -0.596702 -3.663180
  H 2.699112 -2.217428 -2.928529
  H 3.343087 -1.544623 -5.838015
  H 1.880535 -2.334075 -5.258653
  H 3.432437 -3.150766 -5.113904
  H 6.806517 -0.344754 -1.304725
 32
 0.082999
  C 0.966592 0.387438 0.333842
  C 2.432161 0.223035 0.360173
  C 3.231552 0.583765 1.553513
  C 2.472083 1.019292 2.803025
  C 3.441621 1.275514 3.953030
  C 3.036319 -0.272591 -0.793569
  C 4.412878 -0.378610 -0.986768
  C 5.103426 -0.720272 -2.146895
  C 4.618405 -1.297143 -3.431682
  C 3.138471 -1.564947 -3.670780
  C 2.947960 -2.247259 -5.025221
  O 6.410217 -0.541934 -2.180989
  H 0.586615 0.967653 1.166102
  H 0.491778 -0.595980 0.357503
  H 0.652035 0.843284 -0.603501
  H 3.921521 1.391580 1.275385
  H 3.860925 -0.271079 1.819860
  H 1.767300 0.244143 3.103562
  H 1.914220 1.937123 2.609973
  H 4.002201 0.377978 4.197051
  H 2.899645 1.584257 4.843867
  H 4.145700 2.062619 3.700182
  H 2.376721 -0.540654 -1.596220
  H 5.040641 -0.068397 -0.163783
  H 5.165885 -2.239019 -3.552421
  H 5.002752 -0.652090 -4.229971
  H 2.582026 -0.629053 -3.680240
  H 2.742032 -2.219535 -2.894999
  H 3.322831 -1.621301 -5.832444
  H 1.893723 -2.437607 -5.208153
  H 3.473067 -3.199564 -5.059874
  H 6.792517 -0.194120 -1.354133
 32
 0.887298
  C 0.971603 0.442143 0.337788
  C 2.423534 0.187475 0.366855
  C 3.240065 0.569160 1.546210
  C 2.493227 1.024448 2.798364
  C 3.470991 1.266119 3.942410
  C 3.007930 -0.368139 -0.766565
  C 4.383953 -0.520557 -0.940736
  C 5.087568 -0.759100 -2.119109
  C 4.624772 -1.266978 -3.439015
  C 3.152799 -1.563983 -3.695232
  C 2.984409 -2.195278 -5.075687
  O 6.383951 -0.516940 -2.138758
  H 0.649285 1.143912 1.098605
  H 0.438971 -0.496142 0.498072
  H 0.660997 0.794049 -0.645224
  H 3.924129 1.374109 1.246526
  H 3.873400 -0.278875 1.822212
  H 1.775534 0.263649 3.102737
  H 1.951292 1.951891 2.606906
  H 4.014133 0.359200 4.189296
  H 2.939900 1.589447 4.830803
  H 4.188889 2.037252 3.683014
  H 2.345715 -0.616321 -1.577158
  H 5.005468 -0.287985 -0.086432
  H 5.198818 -2.188058 -3.608776
  H 4.994200 -0.567577 -4.199490
  H 2.570898 -0.640898 -3.667968
  H 2.771243 -2.258889 -2.947217
  H 3.351630 -1.531393 -5.853740
  H 1.934745 -2.399937 -5.273677
  H 3.528916 -3.133895 -5.143922
  H 6.754674 -0.227763 -1.284746
 32
 2.815605
  C 0.966979 0.520592 0.345062
  C 2.393681 0.150817 0.354133
  C 3.242903 0.542137 1.513287
  C 2.532637 1.073041 2.760660
  C 3.533875 1.286763 3.889417
  C 2.944411 -0.482061 -0.750451
  C 4.318198 -0.715164 -0.883552
  C 5.062301 -0.837710 -2.054157
  C 4.641223 -1.250166 -3.417273
  C 3.181878 -1.560452 -3.713891
  C 3.047426 -2.129947 -5.124911
  O 6.350194 -0.553162 -2.019212
  H 0.732271 1.309503 1.051519
  H 0.368277 -0.354666 0.608942
  H 0.645387 0.811129 -0.656651
  H 3.953519 1.303350 1.179134
  H 3.841818 -0.320434 1.817981
  H 1.774380 0.362983 3.089988
  H 2.044130 2.026193 2.553100
  H 4.027107 0.355540 4.154931
  H 3.029512 1.662399 4.776021
  H 4.291946 2.008897 3.604180
  H 2.281661 -0.710647 -1.570083
  H 4.915512 -0.586666 0.012950
  H 5.238075 -2.142297 -3.640015
  H 5.007662 -0.491070 -4.117822
  H 2.584325 -0.649511 -3.654155
  H 2.799714 -2.295573 -3.002639
  H 3.419314 -1.423693 -5.866643
  H 2.003130 -2.338409 -5.351577
  H 3.606001 -3.057851 -5.226078
  H 6.708687 -0.357809 -1.132406
 32
 4.628773
  C 1.011906 0.732757 0.301506
  C 2.404076 0.243881 0.307759
  C 3.256128 0.555471 1.489502
  C 2.547768 0.979035 2.777882
  C 3.559618 1.139665 3.909904
  C 2.922467 -0.446090 -0.779040
  C 4.287450 -0.750572 -0.877917
  C 5.050413 -0.847833 -2.037046
  C 4.649003 -1.232842 -3.415049
  C 3.196727 -1.581829 -3.724341
  C 3.096918 -2.201295 -5.115360
  O 6.327872 -0.510340 -1.986948
  H 0.842415 1.524611 1.019114
  H 0.338458 -0.093825 0.547124
  H 0.720955 1.067476 -0.693408
  H 3.947468 1.357917 1.208653
  H 3.872333 -0.315574 1.728048
  H 1.811811 0.225607 3.061496
  H 2.030689 1.929142 2.650000
  H 4.076264 0.204318 4.108166
  H 3.056653 1.443524 4.824633
  H 4.300671 1.899073 3.664565
  H 2.271226 -0.609510 -1.623798
  H 4.871185 -0.610725 0.022104
  H 5.270480 -2.107497 -3.651743
  H 5.000427 -0.454220 -4.096893
  H 2.583380 -0.681704 -3.708118
  H 2.814405 -2.296009 -2.993420
  H 3.481826 -1.517007 -5.874622
  H 2.064046 -2.423053 -5.354836
  H 3.664203 -3.131355 -5.171667
  H 6.693393 -0.374041 -1.091215
 32
 6.470755
  C 1.157269 0.815409 0.173620
  C 2.472951 0.173471 0.344009
  C 3.294978 0.448673 1.549075
  C 2.575208 1.047448 2.758689
  C 3.535383 1.172104 3.940559
  C 2.954244 -0.581033 -0.713679
  C 4.291204 -0.985101 -0.819579
  C 5.050021 -0.981079 -1.990570
  C 4.639492 -1.239560 -3.394702
  C 3.186694 -1.550711 -3.728091
  C 3.070966 -2.001168 -5.182280
  O 6.325940 -0.669147 -1.912845
  H 0.985141 1.613723 0.884246
  H 0.368667 0.067955 0.307678
  H 1.041912 1.195248 -0.840292
  H 4.102212 1.135513 1.267769
  H 3.776722 -0.479476 1.870675
  H 1.738792 0.410569 3.044790
  H 2.188272 2.040114 2.528386
  H 3.927825 0.200248 4.230491
  H 3.022326 1.596440 4.801266
  H 4.372233 1.823118 3.694910
  H 2.304441 -0.698278 -1.562255
  H 4.869277 -0.981734 0.098724
  H 5.253144 -2.096802 -3.704057
  H 4.996215 -0.409587 -4.010259
  H 2.572894 -0.659707 -3.601602
  H 2.811814 -2.344871 -3.081514
  H 3.445907 -1.234322 -5.857315
  H 2.031784 -2.197492 -5.436282
  H 3.637011 -2.912933 -5.354552
  H 6.680750 -0.612567 -1.005109
 32
 6.030476
  C 1.131211 0.710719 0.226698
  C 2.513774 0.209290 0.337265
  C 3.333072 0.524285 1.528844
  C 2.580694 1.025002 2.761010
  C 3.512886 1.081224 3.967834
  C 3.034700 -0.479860 -0.754888
  C 4.368903 -0.892966 -0.860467
  C 5.104381 -0.901802 -2.051765
  C 4.675745 -1.240887 -3.433488
  C 3.205205 -1.488596 -3.748584
  C 3.061299 -2.044601 -5.161839
  O 6.369900 -0.540042 -2.013667
  H 0.919040 1.511111 0.926361
  H 0.433481 -0.105284 0.428870
  H 0.919076 1.046149 -0.787760
  H 4.075270 1.278861 1.251867
  H 3.884497 -0.371750 1.822830
  H 1.747158 0.357942 2.985398
  H 2.180486 2.026044 2.589253
  H 3.918538 0.098763 4.193357
  H 2.974633 1.430091 4.845939
  H 4.342192 1.763005 3.787779
  H 2.385962 -0.594767 -1.607432
  H 4.968975 -0.806814 0.035494
  H 5.236924 -2.151640 -3.679265
  H 5.077968 -0.475619 -4.103774
  H 2.646149 -0.552634 -3.693000
  H 2.782336 -2.203459 -3.047635
  H 3.452278 -1.343810 -5.895103
  H 2.016161 -2.224235 -5.392850
  H 3.597323 -2.986471 -5.268528
  H 6.750117 -0.458505 -1.121465
 32
 11.971119
  C 1.126138 0.743206 0.206878
  C 2.453490 0.118462 0.344125
  C 3.324140 0.450722 1.503359
  C 2.635081 1.044525 2.735297
  C 3.633819 1.189581 3.882668
  C 2.902731 -0.671833 -0.702005
  C 4.236784 -1.121057 -0.796167
  C 5.001226 -0.939113 -1.959028
  C 4.641248 -1.172717 -3.379272
  C 3.219692 -1.569789 -3.749356
  C 3.150995 -1.950439 -5.224652
  O 6.223324 -0.445212 -1.830333
  H 0.951276 1.522353 0.935588
  H 0.348875 -0.016372 0.319599
  H 1.000985 1.153749 -0.794203
  H 4.087319 1.160895 1.173035
  H 3.848039 -0.455115 1.827187
  H 1.817498 0.393624 3.053692
  H 2.223368 2.031355 2.515500
  H 4.050683 0.223092 4.163907
  H 3.144678 1.610641 4.758749
  H 4.452964 1.851135 3.603968
  H 2.241285 -0.801729 -1.545740
  H 4.807979 -1.118681 0.124188
  H 5.314651 -1.983760 -3.691418
  H 4.954980 -0.305554 -3.964654
  H 2.540190 -0.733713 -3.585991
  H 2.893690 -2.419903 -3.145266
  H 3.462305 -1.120115 -5.852720
  H 2.135552 -2.218557 -5.499005
  H 3.792994 -2.801552 -5.439973
  H 6.582354 -0.449382 -0.920670
