 22
 0.000000
  C 1.027112 0.131073 0.343086
  C 2.492829 0.160193 0.398592
  C 3.232890 0.622125 1.578371
  C 2.430098 1.088740 2.783806
  C 3.354659 1.531934 3.912775
  C 3.168854 -0.282122 -0.736112
  C 4.563375 -0.366915 -0.922834
  C 5.092893 -0.850183 -2.075533
  H 4.467424 -1.186234 -2.887081
  H 6.157842 -0.918215 -2.221930
  H 0.550571 0.476996 1.252154
  H 0.686811 -0.884239 0.121585
  H 0.678021 0.730800 -0.500331
  H 3.904493 1.431926 1.265823
  H 3.909844 -0.181672 1.894584
  H 1.793557 0.280509 3.149290
  H 1.787573 1.927118 2.507562
  H 3.993763 0.714951 4.239703
  H 2.773178 1.863386 4.769107
  H 3.987808 2.358804 3.599247
  H 2.557168 -0.610111 -1.568012
  H 5.227822 -0.042250 -0.134362
 22
 0.647022
  C 1.025148 0.135036 0.347812
  C 2.488828 0.241596 0.363480
  C 3.231856 0.672723 1.557558
  C 2.429337 1.075015 2.787247
  C 3.354135 1.527050 3.913682
  C 3.163813 -0.182060 -0.785222
  C 4.547177 -0.426694 -0.906926
  C 5.089012 -0.879713 -2.066657
  H 4.479218 -1.075804 -2.933999
  H 6.145494 -1.062479 -2.159643
  H 0.537155 0.588305 1.200375
  H 0.818041 -0.942908 0.359009
  H 0.603473 0.490924 -0.589780
  H 3.881513 1.509969 1.269743
  H 3.931327 -0.125592 1.837923
  H 1.832262 0.232524 3.139826
  H 1.750382 1.894937 2.544922
  H 4.035017 0.730249 4.205027
  H 2.773995 1.807188 4.789515
  H 3.944250 2.390502 3.614229
  H 2.571638 -0.347326 -1.676994
  H 5.192087 -0.264142 -0.055719
 22
 3.889898
  C 1.029467 0.238000 0.333878
  C 2.482298 0.242047 0.356815
  C 3.231370 0.729358 1.526409
  C 2.430219 1.034415 2.791259
  C 3.354356 1.482922 3.917394
  C 3.150504 -0.224429 -0.785839
  C 4.525582 -0.501791 -0.886270
  C 5.088172 -0.889888 -2.061060
  H 4.508257 -0.963042 -2.963133
  H 6.138159 -1.094685 -2.138659
  H 0.525829 0.806895 1.103803
  H 0.960695 -0.842827 0.607190
  H 0.579934 0.309589 -0.656595
  H 3.742810 1.646190 1.209300
  H 4.027874 0.029234 1.773907
  H 1.888451 0.148077 3.108981
  H 1.703830 1.831856 2.605870
  H 4.045016 0.688574 4.197559
  H 2.778176 1.748350 4.795297
  H 3.933531 2.352136 3.624249
  H 2.569568 -0.358158 -1.686503
  H 5.152455 -0.429280 -0.003081
 22
 16.570938
  C 1.014919 0.248762 0.349217
  C 2.447422 0.218885 0.366307
  C 3.229863 0.672030 1.543270
  C 2.426959 1.145052 2.746291
  C 3.350670 1.450572 3.918945
  C 3.118188 -0.246160 -0.787995
  C 4.502286 -0.452683 -0.907175
  C 5.077165 -0.788146 -2.092052
  H 4.488620 -0.930027 -2.983984
  H 6.132757 -0.968467 -2.170458
  H 0.464096 0.740248 1.131793
  H 1.298003 -0.869936 0.664687
  H 0.513988 0.152284 -0.601514
  H 3.861023 1.500720 1.200172
  H 3.910235 -0.116359 1.860335
  H 1.716717 0.378994 3.053425
  H 1.871572 2.050216 2.495519
  H 3.873023 0.553873 4.252747
  H 2.779109 1.839098 4.761224
  H 4.093118 2.194318 3.645459
  H 2.522267 -0.445527 -1.669436
  H 5.131198 -0.349929 -0.037531
 22
 33.320865
  C 0.991583 0.394691 0.306658
  C 2.394537 0.195476 0.364594
  C 3.203665 0.677816 1.531691
  C 2.411659 1.084527 2.776203
  C 3.362965 1.422205 3.926062
  C 3.097337 -0.251418 -0.811151
  C 4.479119 -0.423785 -0.923148
  C 5.062920 -0.870171 -2.067330
  H 4.473044 -1.139517 -2.930267
  H 6.128521 -0.988162 -2.148159
  H 0.452752 0.864883 1.108767
  H 1.637895 -0.819037 0.646593
  H 0.454341 0.211803 -0.612580
  H 3.768033 1.548270 1.186659
  H 3.932016 -0.079025 1.818316
  H 1.752198 0.277406 3.095469
  H 1.804002 1.966284 2.563673
  H 3.942121 0.551036 4.229417
  H 2.806164 1.766692 4.789949
  H 4.057790 2.209446 3.634692
  H 2.502562 -0.474992 -1.687355
  H 5.111824 -0.162434 -0.088458
 22
 39.307579
  C 0.980550 0.432411 0.313721
  C 2.368301 0.129169 0.397973
  C 3.204630 0.625567 1.568314
  C 2.410246 1.112215 2.779903
  C 3.353816 1.453033 3.931505
  C 3.071687 -0.290134 -0.813145
  C 4.449651 -0.456127 -0.935074
  C 5.024068 -0.818037 -2.113927
  H 4.430955 -1.030942 -2.985814
  H 6.089723 -0.892681 -2.218780
  H 0.462731 0.952103 1.101601
  H 2.002177 -0.946797 0.560689
  H 0.408795 0.148538 -0.553455
  H 3.820145 1.454779 1.208291
  H 3.886524 -0.161998 1.894442
  H 1.714654 0.343130 3.113986
  H 1.842186 2.006940 2.527033
  H 3.894561 0.570929 4.270577
  H 2.796063 1.848364 4.776986
  H 4.080725 2.201535 3.626040
  H 2.461441 -0.493922 -1.686672
  H 5.086661 -0.248324 -0.086407
 22
 40.510452
  C 0.974805 0.442348 0.336603
  C 2.342930 0.124398 0.418184
  C 3.191926 0.616318 1.580846
  C 2.407710 1.108122 2.797695
  C 3.361471 1.477556 3.928567
  C 3.039094 -0.315100 -0.805043
  C 4.427294 -0.479782 -0.934618
  C 4.993472 -0.801117 -2.123297
  H 4.398673 -0.964822 -3.006494
  H 6.059708 -0.886453 -2.231096
  H 0.468172 0.989274 1.108315
  H 2.281118 -1.043640 0.377744
  H 0.396674 0.151687 -0.522719
  H 3.817546 1.436134 1.221844
  H 3.859796 -0.180860 1.910387
  H 1.730087 0.328915 3.150221
  H 1.819657 1.989665 2.540069
  H 3.920527 0.608324 4.267542
  H 2.809596 1.874524 4.777036
  H 4.070305 2.236204 3.605705
  H 2.428590 -0.483432 -1.682758
  H 5.062880 -0.319217 -0.075630
 22
 37.200453
  C 0.971215 0.437898 0.358011
  C 2.315700 0.143212 0.438488
  C 3.169092 0.628469 1.585034
  C 2.399389 1.126991 2.810899
  C 3.368394 1.487649 3.933829
  C 3.001993 -0.358519 -0.775091
  C 4.407126 -0.524374 -0.909081
  C 4.976896 -0.780691 -2.104931
  H 4.389067 -0.893205 -2.999984
  H 6.039785 -0.900112 -2.204736
  H 0.459035 0.959668 1.144546
  H 2.459079 -1.112961 0.135143
  H 0.385851 0.162976 -0.502467
  H 3.798980 1.440971 1.216324
  H 3.835834 -0.172549 1.914824
  H 1.718147 0.353945 3.167537
  H 1.816843 2.015182 2.559338
  H 3.928532 0.614205 4.263228
  H 2.827542 1.882262 4.790435
  H 4.076415 2.245530 3.606106
  H 2.399693 -0.465009 -1.669706
  H 5.036543 -0.385915 -0.042928
 22
 28.482037
  C 0.977062 0.439576 0.356244
  C 2.307316 0.184714 0.446531
  C 3.163022 0.627148 1.584984
  C 2.412635 1.166431 2.804608
  C 3.391480 1.481341 3.931187
  C 2.962853 -0.449911 -0.737834
  C 4.395579 -0.536405 -0.897905
  C 4.966563 -0.724347 -2.103085
  H 4.377852 -0.827224 -2.999626
  H 6.035220 -0.745437 -2.221714
  H 0.463865 0.997525 1.118554
  H 2.563890 -1.276037 -0.039855
  H 0.380332 0.099658 -0.472496
  H 3.837972 1.403915 1.212536
  H 3.791644 -0.200612 1.921002
  H 1.691949 0.428266 3.159833
  H 1.875571 2.079297 2.544440
  H 3.901180 0.582031 4.269541
  H 2.866190 1.909659 4.781282
  H 4.140942 2.199158 3.604930
  H 2.368480 -0.519279 -1.644117
  H 5.020965 -0.448831 -0.022033
 22
 20.251408
  C 0.961440 0.404777 0.381028
  C 2.297612 0.186189 0.455103
  C 3.150749 0.590817 1.595995
  C 2.429856 1.182393 2.806361
  C 3.427581 1.508831 3.912910
  C 2.923275 -0.490625 -0.720918
  C 4.374426 -0.559591 -0.871034
  C 4.965927 -0.658448 -2.077398
  H 4.393218 -0.690590 -2.989855
  H 6.036033 -0.706700 -2.178407
  H 0.429442 0.929543 1.154991
  H 2.558658 -1.453458 -0.278838
  H 0.377045 0.085962 -0.465298
  H 3.879861 1.317567 1.218900
  H 3.734921 -0.267399 1.942020
  H 1.694358 0.475676 3.192855
  H 1.911770 2.099128 2.520653
  H 3.928968 0.610905 4.266562
  H 2.918098 1.962923 4.759273
  H 4.182116 2.209455 3.562366
  H 2.373874 -0.387921 -1.655240
  H 4.985441 -0.519262 0.018368
 22
 16.757682
  C 0.930766 0.353404 0.426669
  C 2.279219 0.180612 0.457751
  C 3.133717 0.561233 1.602691
  C 2.442233 1.186438 2.809625
  C 3.459788 1.540859 3.889199
  C 2.895521 -0.453653 -0.738571
  C 4.356603 -0.572392 -0.841046
  C 4.984268 -0.664992 -2.024341
  H 4.446470 -0.639058 -2.957825
  H 6.054271 -0.755041 -2.089398
  H 0.390480 0.794167 1.245329
  H 2.482050 -1.476805 -0.605305
  H 0.345811 0.072105 -0.432674
  H 3.901781 1.249842 1.228230
  H 3.684741 -0.321991 1.946797
  H 1.711374 0.494381 3.230625
  H 1.917808 2.095660 2.509899
  H 4.005043 0.659507 4.219535
  H 2.959212 1.967356 4.755018
  H 4.177215 2.272012 3.523907
  H 2.438744 -0.119713 -1.674046
  H 4.937557 -0.593757 0.068328
 22
 16.187517
  C 0.914457 0.283625 0.470310
  C 2.272204 0.175894 0.464046
  C 3.125921 0.554070 1.609215
  C 2.444633 1.194674 2.812703
  C 3.469003 1.564448 3.881311
  C 2.890392 -0.391490 -0.760283
  C 4.354584 -0.553859 -0.833640
  C 4.990347 -0.724358 -2.003665
  H 4.463100 -0.736397 -2.943603
  H 6.058945 -0.839382 -2.052685
  H 0.369392 0.596564 1.342563
  H 2.431947 -1.390711 -0.879747
  H 0.325720 0.042950 -0.399002
  H 3.907460 1.229216 1.238681
  H 3.664475 -0.338605 1.950701
  H 1.719557 0.506197 3.250126
  H 1.912089 2.097321 2.506547
  H 4.004972 0.685464 4.231179
  H 2.975850 2.017420 4.737679
  H 4.193968 2.277908 3.497291
  H 2.518476 0.133170 -1.650512
  H 4.927177 -0.553947 0.081182
