26

C 1.003935 0.138705 0.361449
C 2.483603 0.155402 0.397685
C 3.243866 0.620217 1.583181
H 2.6806118948749176 0.9517171526554411 2.4303837277158413
C 3.114431 -0.295082 -0.7501
C 4.487382 -0.396916 -0.991201
C 5.139314 -0.863467 -2.122018
C 4.618318 -1.394183 -3.413497
C 3.121944 -1.50218 -3.68435
C 2.870151 -2.075134 -5.076211
O 6.465118 -0.870796 -2.132503
H 0.542702 0.495282 1.275972
H 0.641729 -0.876695 0.177128
H 0.645441 0.760851 -0.459674
H 3.90007 1.439601 1.267525
H 3.901003 -0.194862 1.907772
H 2.451184 -0.608121 -1.54023
H 5.123331 -0.063592 -0.177711
H 5.063336 -2.388232 -3.537269
H 5.067152 -0.777558 -4.200809
H 2.655797 -0.517201 -3.63302
H 2.651816 -2.162977 -2.954637
H 3.30182 -1.43866 -5.845692
H 1.800897 -2.148589 -5.260878
H 3.297821 -3.070737 -5.173102
H 6.852481 -0.531003 -1.304147
