 26
 0.000000
  C 1.013184 0.148227 0.381182
  C 2.489170 0.158023 0.397583
  C 3.241055 0.613007 1.579686
  H 2.629836 0.933368 2.412901
  C 3.112543 -0.288881 -0.758074
  C 4.481850 -0.392386 -0.997353
  C 5.137015 -0.863563 -2.129205
  C 4.614085 -1.396304 -3.416807
  C 3.118628 -1.503703 -3.689070
  C 2.879353 -2.081706 -5.081575
  O 6.457748 -0.872327 -2.138356
  H 0.574158 0.501077 1.309694
  H 0.644980 -0.862965 0.187589
  H 0.645101 0.774925 -0.432110
  H 3.894928 1.439261 1.291349
  H 3.895247 -0.193113 1.919463
  H 2.444747 -0.597596 -1.545569
  H 5.124182 -0.059693 -0.188852
  H 5.061502 -2.389670 -3.537342
  H 5.067620 -0.783647 -4.204476
  H 2.652708 -0.518806 -3.643692
  H 2.646371 -2.162891 -2.959901
  H 3.317075 -1.447181 -5.848667
  H 1.812738 -2.158669 -5.276748
  H 3.310735 -3.075925 -5.171487
  H 6.858694 -0.533072 -1.316119
 26
 -0.744328
  C 1.004286 0.151550 0.469044
  C 2.474381 0.173104 0.373379
  C 3.269850 0.618391 1.538930
  H 2.631331 0.968631 2.348261
  C 3.052794 -0.280686 -0.804819
  C 4.425774 -0.395165 -1.008869
  C 5.110803 -0.869032 -2.126200
  C 4.609626 -1.401537 -3.421630
  C 3.121128 -1.478576 -3.729640
  C 2.912767 -2.058484 -5.126028
  O 6.428702 -0.886879 -2.102910
  H 0.634169 0.715647 1.316894
  H 0.685760 -0.889461 0.585272
  H 0.538217 0.506761 -0.447112
  H 3.951730 1.422137 1.257812
  H 3.886964 -0.199754 1.915364
  H 2.378105 -0.569703 -1.592205
  H 5.058541 -0.075625 -0.190003
  H 5.043684 -2.402814 -3.523254
  H 5.102523 -0.809957 -4.201491
  H 2.677185 -0.483888 -3.701928
  H 2.618748 -2.125999 -3.011685
  H 3.380825 -1.432081 -5.881815
  H 1.851950 -2.124837 -5.353529
  H 3.336724 -3.057622 -5.200197
  H 6.829230 -0.554716 -1.280289
 26
 1.684285
  C 1.010686 0.121858 0.499537
  C 2.471452 0.164102 0.372581
  C 3.265620 0.712214 1.491595
  H 2.625832 1.040616 2.304700
  C 3.044190 -0.297392 -0.805750
  C 4.416948 -0.464768 -0.986355
  C 5.104297 -0.938457 -2.099397
  C 4.610373 -1.414142 -3.421097
  C 3.122893 -1.447949 -3.748517
  C 2.917469 -1.992115 -5.160163
  O 6.421981 -1.014012 -2.049678
  H 0.588667 0.789796 1.238428
  H 0.963033 -0.899872 0.920099
  H 0.471434 0.086479 -0.439124
  H 3.849813 1.565451 1.146723
  H 3.969503 -0.023471 1.879743
  H 2.374293 -0.543746 -1.610478
  H 5.045234 -0.195145 -0.145731
  H 5.025174 -2.420215 -3.553671
  H 5.123694 -0.801941 -4.172107
  H 2.702673 -0.442815 -3.704301
  H 2.596817 -2.098724 -3.049915
  H 3.420637 -1.367668 -5.894821
  H 1.859080 -2.016268 -5.406504
  H 3.307636 -3.003457 -5.248087
  H 6.816717 -0.713044 -1.209794
 26
 15.355220
  C 1.003272 0.219265 0.489411
  C 2.447643 0.139124 0.380789
  C 3.273321 0.735668 1.464637
  H 2.650935 1.085764 2.283811
  C 3.015901 -0.342605 -0.792808
  C 4.386974 -0.525914 -0.961752
  C 5.079720 -0.978653 -2.075491
  C 4.602646 -1.417767 -3.420270
  C 3.116146 -1.472243 -3.752542
  C 2.924445 -1.952578 -5.189012
  O 6.402232 -1.068406 -2.014415
  H 0.550495 0.825761 1.255685
  H 1.272186 -0.803577 0.952885
  H 0.411124 -0.008140 -0.385035
  H 3.823206 1.589040 1.067300
  H 3.997688 0.026325 1.862111
  H 2.348886 -0.600928 -1.594838
  H 5.013763 -0.249265 -0.122869
  H 5.040920 -2.408091 -3.587894
  H 5.101327 -0.763194 -4.145449
  H 2.672144 -0.481113 -3.661202
  H 2.606579 -2.168563 -3.086304
  H 3.393980 -1.269372 -5.892802
  H 1.866336 -2.012323 -5.431215
  H 3.359899 -2.939353 -5.330482
  H 6.781567 -0.776872 -1.170334
 26
 34.241056
  C 0.985965 0.287298 0.490392
  C 2.404538 0.113023 0.400071
  C 3.265076 0.677825 1.493579
  H 2.656275 1.064328 2.305247
  C 2.998050 -0.304726 -0.819508
  C 4.366201 -0.476343 -0.984306
  C 5.062324 -0.942686 -2.084933
  C 4.593715 -1.417759 -3.420965
  C 3.110456 -1.449525 -3.766795
  C 2.920015 -1.983430 -5.184258
  O 6.393749 -1.017592 -2.023200
  H 0.530075 0.769435 1.335752
  H 1.638835 -0.832141 0.818213
  H 0.358841 0.050615 -0.353629
  H 3.856750 1.498780 1.096404
  H 3.944228 -0.066923 1.901051
  H 2.333728 -0.528006 -1.634759
  H 4.989593 -0.208682 -0.139857
  H 5.009031 -2.423990 -3.547830
  H 5.116005 -0.801530 -4.161826
  H 2.691328 -0.444258 -3.719965
  H 2.577192 -2.105188 -3.078190
  H 3.427105 -1.350435 -5.908759
  H 1.864100 -2.011674 -5.441021
  H 3.317806 -2.991644 -5.276235
  H 6.764159 -0.720369 -1.173822
 26
 40.841772
  C 0.974458 0.371992 0.457708
  C 2.384961 0.074361 0.432624
  C 3.256787 0.674098 1.516431
  H 2.646463 1.077989 2.317434
  C 2.998637 -0.349828 -0.813837
  C 4.356298 -0.500820 -0.979272
  C 5.057747 -0.941610 -2.092751
  C 4.585543 -1.407608 -3.430253
  C 3.099773 -1.462113 -3.764833
  C 2.907661 -1.984562 -5.186691
  O 6.387158 -0.987749 -2.038898
  H 0.521536 0.852257 1.305181
  H 1.923411 -0.918036 0.797603
  H 0.343867 0.106645 -0.372627
  H 3.846370 1.487070 1.101511
  H 3.933090 -0.060998 1.941743
  H 2.324191 -0.580483 -1.618132
  H 4.979139 -0.232792 -0.133313
  H 5.017104 -2.404999 -3.572176
  H 5.091701 -0.774602 -4.168643
  H 2.663196 -0.464833 -3.704221
  H 2.583206 -2.134774 -3.079085
  H 3.397342 -1.335393 -5.908191
  H 1.850149 -2.028760 -5.435597
  H 3.322011 -2.984300 -5.292632
  H 6.758872 -0.694414 -1.190756
 26
 41.192564
  C 0.983698 0.437101 0.444886
  C 2.362726 0.055053 0.456904
  C 3.242599 0.630053 1.553045
  H 2.630330 1.017904 2.360951
  C 2.993545 -0.353663 -0.815030
  C 4.350253 -0.504053 -0.976240
  C 5.052586 -0.916881 -2.105143
  C 4.572564 -1.392004 -3.432521
  C 3.085665 -1.465945 -3.756000
  C 2.891388 -2.007295 -5.170433
  O 6.371683 -0.917720 -2.069979
  H 0.554070 0.988748 1.258193
  H 2.219976 -1.061992 0.621605
  H 0.344614 0.167252 -0.375755
  H 3.833884 1.452648 1.158489
  H 3.914045 -0.115153 1.967968
  H 2.317721 -0.540983 -1.629827
  H 4.971553 -0.248053 -0.126460
  H 5.013499 -2.386435 -3.570384
  H 5.067662 -0.761578 -4.179623
  H 2.638752 -0.472731 -3.706425
  H 2.579451 -2.135704 -3.060662
  H 3.368176 -1.360291 -5.903375
  H 1.833129 -2.067133 -5.411567
  H 3.316778 -3.003459 -5.267747
  H 6.753212 -0.619828 -1.224253
 26
 43.519302
  C 0.986291 0.415851 0.479208
  C 2.346913 0.103414 0.463438
  C 3.232419 0.646870 1.560750
  H 2.628138 1.065047 2.359160
  C 2.968931 -0.380732 -0.791919
  C 4.342384 -0.522961 -0.961870
  C 5.037507 -0.923583 -2.087983
  C 4.558211 -1.395123 -3.420837
  C 3.071164 -1.468487 -3.744762
  C 2.876924 -2.001816 -5.162350
  O 6.364445 -0.925334 -2.060133
  H 0.552390 0.962011 1.294963
  H 2.416870 -1.088484 0.364571
  H 0.331934 0.123429 -0.321938
  H 3.860961 1.441779 1.166781
  H 3.871568 -0.118775 1.989875
  H 2.295776 -0.553140 -1.612583
  H 4.961091 -0.264507 -0.111253
  H 4.999915 -2.387968 -3.562944
  H 5.051837 -0.759193 -4.163985
  H 2.623397 -0.475696 -3.690163
  H 2.565233 -2.143649 -3.054566
  H 3.352368 -1.349962 -5.891672
  H 1.818692 -2.062009 -5.403444
  H 3.304346 -2.996689 -5.265719
  H 6.746312 -0.629800 -1.214121
 26
 38.376168
  C 1.001459 0.438210 0.481241
  C 2.327637 0.143354 0.474658
  C 3.230257 0.703729 1.527825
  H 2.646847 1.155513 2.323371
  C 2.935294 -0.483923 -0.738302
  C 4.333054 -0.591137 -0.925391
  C 5.028925 -0.943657 -2.061769
  C 4.552413 -1.385060 -3.406175
  C 3.066899 -1.470116 -3.725497
  C 2.873691 -1.961119 -5.159217
  O 6.357701 -0.916216 -2.042621
  H 0.566865 1.002633 1.286629
  H 2.551489 -1.195487 0.180894
  H 0.325897 0.090230 -0.279160
  H 3.865986 1.474331 1.095279
  H 3.866376 -0.059076 1.971171
  H 2.262715 -0.640546 -1.565014
  H 4.945244 -0.339133 -0.071222
  H 5.008868 -2.366936 -3.579948
  H 5.032801 -0.721112 -4.131370
  H 2.604824 -0.486044 -3.637839
  H 2.573962 -2.174724 -3.054734
  H 3.336720 -1.280715 -5.869200
  H 1.814338 -2.028051 -5.398263
  H 3.314074 -2.946916 -5.295818
  H 6.739082 -0.636069 -1.190436
 26
 28.867184
  C 1.011354 0.436542 0.470194
  C 2.331741 0.187520 0.467372
  C 3.244494 0.751182 1.501783
  H 2.677079 1.287117 2.256418
  C 2.918326 -0.554892 -0.705124
  C 4.337567 -0.617354 -0.916171
  C 5.032490 -0.945444 -2.058941
  C 4.552779 -1.363537 -3.407811
  C 3.065486 -1.474277 -3.717305
  C 2.870851 -1.929960 -5.161632
  O 6.359773 -0.920522 -2.038124
  H 0.559673 1.020260 1.252445
  H 2.651243 -1.370000 0.048286
  H 0.352208 0.079066 -0.301313
  H 3.940434 1.447334 1.037129
  H 3.819256 -0.024614 2.003315
  H 2.247967 -0.682882 -1.541301
  H 4.948802 -0.357628 -0.060962
  H 5.028337 -2.330527 -3.608435
  H 5.013957 -0.672926 -4.122507
  H 2.581831 -0.504255 -3.599118
  H 2.594329 -2.207034 -3.062453
  H 3.309715 -1.218232 -5.857074
  H 1.812156 -2.017285 -5.392423
  H 3.333953 -2.899521 -5.329831
  H 6.745013 -0.662235 -1.181608
 26
 21.021357
  C 1.032337 0.468908 0.460101
  C 2.349190 0.222532 0.453918
  C 3.270330 0.755505 1.491095
  H 2.719601 1.323765 2.234701
  C 2.895792 -0.603326 -0.677793
  C 4.330247 -0.637911 -0.896633
  C 5.028143 -0.935463 -2.047788
  C 4.547706 -1.342212 -3.398491
  C 3.061846 -1.474845 -3.704219
  C 2.869412 -1.933530 -5.147896
  O 6.352820 -0.887201 -2.030014
  H 0.573795 1.064448 1.230066
  H 2.626282 -1.544257 -0.146876
  H 0.371838 0.095944 -0.303422
  H 4.009630 1.409934 1.031904
  H 3.796930 -0.047892 2.003635
  H 2.268166 -0.581994 -1.560422
  H 4.937509 -0.397044 -0.033365
  H 5.038090 -2.299207 -3.613091
  H 4.997053 -0.639009 -4.108920
  H 2.563254 -0.511949 -3.586938
  H 2.601531 -2.211365 -3.046206
  H 3.299428 -1.218300 -5.845220
  H 1.811266 -2.031642 -5.376201
  H 3.341136 -2.898792 -5.316280
  H 6.740091 -0.637184 -1.171322
 26
 18.961004
  C 1.026809 0.417955 0.519294
  C 2.356936 0.261170 0.438640
  C 3.280651 0.757661 1.490530
  H 2.735378 1.305872 2.252862
  C 2.890415 -0.504141 -0.734157
  C 4.334359 -0.579252 -0.917105
  C 5.039356 -0.934930 -2.046354
  C 4.558888 -1.358738 -3.391564
  C 3.072495 -1.469177 -3.701185
  C 2.875054 -1.969165 -5.130175
  O 6.364252 -0.932727 -2.011094
  H 0.568680 0.922102 1.352270
  H 2.525887 -1.508305 -0.444512
  H 0.355103 0.068313 -0.245526
  H 4.029044 1.417899 1.054843
  H 3.797720 -0.070424 1.973775
  H 2.338503 -0.276383 -1.644520
  H 4.933304 -0.337699 -0.048817
  H 5.031326 -2.329530 -3.583806
  H 5.026969 -0.681529 -4.115226
  H 2.592699 -0.493116 -3.617448
  H 2.591338 -2.170843 -3.020634
  H 3.328629 -1.289731 -5.848043
  H 1.815785 -2.045321 -5.361492
  H 3.320133 -2.952273 -5.264300
  H 6.748344 -0.673629 -1.153823
 26
 18.771010
  C 1.023421 0.408275 0.515125
  C 2.358067 0.289842 0.421131
  C 3.259229 0.627913 1.552674
  H 2.696961 1.036794 2.386469
  C 2.907766 -0.320078 -0.827214
  C 4.356238 -0.432956 -0.971511
  C 5.059953 -0.884841 -2.065635
  C 4.567841 -1.394386 -3.376503
  C 3.078346 -1.476958 -3.677411
  C 2.858081 -2.066977 -5.067667
  O 6.384521 -0.907976 -2.026535
  H 0.558552 0.726481 1.432527
  H 2.455111 -1.326398 -0.801253
  H 0.354140 0.212438 -0.304201
  H 3.996092 1.366384 1.239291
  H 3.792621 -0.257240 1.897162
  H 2.442092 0.130596 -1.709183
  H 4.951217 -0.138845 -0.117627
  H 5.008787 -2.391309 -3.496217
  H 5.057384 -0.788508 -4.147852
  H 2.628884 -0.483605 -3.656790
  H 2.574721 -2.111451 -2.948805
  H 3.328107 -1.452861 -5.832186
  H 1.795699 -2.126409 -5.289481
  H 3.272296 -3.070176 -5.136194
  H 6.771931 -0.593694 -1.189679
 26
 17.470340
  C 1.023738 0.448043 0.517781
  C 2.350178 0.253257 0.436142
  C 3.262129 0.599133 1.559452
  H 2.701900 0.983417 2.406294
  C 2.897881 -0.340489 -0.821311
  C 4.349780 -0.444435 -0.961641
  C 5.055580 -0.880240 -2.061370
  C 4.565168 -1.383635 -3.375315
  C 3.076229 -1.494413 -3.669747
  C 2.860455 -2.080512 -5.062382
  O 6.379886 -0.890562 -2.025668
  H 0.568738 0.870707 1.393479
  H 2.454164 -1.343567 -0.919550
  H 0.357425 0.194967 -0.287936
  H 3.977189 1.360040 1.249348
  H 3.817971 -0.278453 1.883941
  H 2.463489 0.188898 -1.680848
  H 4.944840 -0.148576 -0.107932
  H 5.028560 -2.368437 -3.514048
  H 5.036911 -0.755376 -4.141893
  H 2.604384 -0.511643 -3.637166
  H 2.588466 -2.144760 -2.943591
  H 3.314763 -1.453083 -5.825435
  H 1.797909 -2.158334 -5.279701
  H 3.293103 -3.074831 -5.139134
  H 6.767227 -0.573061 -1.189334
