 23
 0.000000
  C 0.979483 0.183742 0.501496
  C 2.435544 0.125620 0.356629
  H 3.071073 0.449043 1.167858
  C 2.995431 -0.344401 -0.810269
  C 4.376987 -0.419294 -0.996732
  C 5.095930 -0.865496 -2.106489
  C 4.625557 -1.390869 -3.413853
  C 3.142241 -1.519372 -3.735348
  C 2.963572 -2.084849 -5.142365
  O 6.409275 -0.846480 -2.058890
  H 0.666905 0.572197 1.466256
  H 0.545235 -0.809883 0.362774
  H 0.549026 0.805950 -0.286076
  H 2.327407 -0.659664 -1.593230
  H 4.975995 -0.081218 -0.157197
  H 5.097380 -2.373708 -3.531659
  H 5.098242 -0.763580 -4.179057
  H 2.658703 -0.543010 -3.694765
  H 2.657880 -2.195615 -3.030486
  H 3.417250 -1.433661 -5.885753
  H 1.906778 -2.179142 -5.378327
  H 3.416468 -3.069731 -5.228113
  H 6.784748 -0.511296 -1.222203
 23
 4.929019
  C 0.974895 0.251682 0.544584
  C 2.394608 0.124985 0.342457
  H 3.075054 0.431283 1.127264
  C 2.949855 -0.356537 -0.834850
  C 4.351034 -0.433045 -1.007223
  C 5.085161 -0.874292 -2.104348
  C 4.629797 -1.396047 -3.414566
  C 3.148476 -1.522593 -3.745167
  C 2.980219 -2.083976 -5.154525
  O 6.392018 -0.854204 -2.041537
  H 0.670801 0.607517 1.522853
  H 0.789597 -0.795441 0.386874
  H 0.446454 0.804543 -0.240138
  H 2.278840 -0.670548 -1.620536
  H 4.943130 -0.094962 -0.159599
  H 5.105287 -2.376939 -3.531399
  H 5.111282 -0.768429 -4.173568
  H 2.666637 -0.545200 -3.705481
  H 2.660605 -2.201658 -3.045244
  H 3.440714 -1.430659 -5.891963
  H 1.925754 -2.178121 -5.400534
  H 3.434699 -3.068355 -5.239052
  H 6.763307 -0.520631 -1.201266
 23
 12.872799
  C 0.980914 0.293452 0.536880
  C 2.380048 0.138147 0.336109
  H 3.072821 0.444413 1.111086
  C 2.942870 -0.356698 -0.840079
  C 4.323189 -0.441096 -0.998152
  C 5.065115 -0.883107 -2.092352
  C 4.621819 -1.398211 -3.408382
  C 3.141976 -1.517539 -3.750538
  C 2.981128 -2.071499 -5.165663
  O 6.384988 -0.871701 -2.021984
  H 0.668213 0.685618 1.488370
  H 1.034197 -0.795834 0.483821
  H 0.386829 0.659766 -0.287258
  H 2.280851 -0.671066 -1.636124
  H 4.910536 -0.107506 -0.146116
  H 5.094378 -2.380751 -3.523593
  H 5.111229 -0.767562 -4.159797
  H 2.664385 -0.537580 -3.709217
  H 2.647341 -2.199082 -3.057353
  H 3.450142 -1.416267 -5.895996
  H 1.928220 -2.160246 -5.420227
  H 3.433004 -3.056844 -5.252036
  H 6.752662 -0.539473 -1.169208
 23
 19.846652
  C 0.965396 0.324125 0.529723
  C 2.363379 0.137564 0.328505
  H 3.050373 0.442964 1.108730
  C 2.938769 -0.360549 -0.850111
  C 4.323171 -0.451109 -0.995715
  C 5.066262 -0.890439 -2.081659
  C 4.624923 -1.402645 -3.412582
  C 3.144435 -1.512768 -3.756215
  C 2.980948 -2.059288 -5.174028
  O 6.388682 -0.886006 -2.003755
  H 0.644525 0.778644 1.447848
  H 1.224537 -0.767372 0.610850
  H 0.321428 0.517912 -0.312333
  H 2.288799 -0.667088 -1.652119
  H 4.904453 -0.123607 -0.142324
  H 5.091962 -2.387025 -3.529866
  H 5.117661 -0.770459 -4.159882
  H 2.672278 -0.529570 -3.710215
  H 2.646209 -2.195672 -3.065483
  H 3.454649 -1.402629 -5.901296
  H 1.927006 -2.141387 -5.429817
  H 3.428505 -3.047243 -5.264577
  H 6.742911 -0.560538 -1.154550
 23
 24.355478
  C 0.959299 0.361569 0.549004
  C 2.353906 0.136473 0.346650
  H 3.039777 0.444593 1.120969
  C 2.924624 -0.365794 -0.847098
  C 4.304828 -0.463617 -0.997046
  C 5.049820 -0.899603 -2.082378
  C 4.624283 -1.406422 -3.420359
  C 3.149793 -1.516771 -3.782752
  C 3.004503 -2.056696 -5.201944
  O 6.375549 -0.899019 -1.998679
  H 0.630219 0.881719 1.435479
  H 1.377570 -0.709131 0.759622
  H 0.277469 0.392494 -0.292882
  H 2.261142 -0.662249 -1.644410
  H 4.886455 -0.142871 -0.144345
  H 5.092558 -2.389360 -3.534779
  H 5.123783 -0.769760 -4.157717
  H 2.677044 -0.535452 -3.738502
  H 2.644710 -2.201967 -3.101529
  H 3.486904 -1.396634 -5.920068
  H 1.954386 -2.138788 -5.471166
  H 3.454641 -3.043535 -5.290536
  H 6.720237 -0.577446 -1.148150
 23
 28.112094
  C 0.955596 0.377451 0.525448
  C 2.348362 0.118715 0.337820
  H 3.036406 0.437476 1.125330
  C 2.924412 -0.377131 -0.849435
  C 4.301425 -0.471950 -0.994292
  C 5.048764 -0.901795 -2.076094
  C 4.625202 -1.405988 -3.419678
  C 3.148598 -1.515596 -3.780168
  C 3.000498 -2.051099 -5.201709
  O 6.379250 -0.898732 -1.988311
  H 0.619543 0.903066 1.399777
  H 1.487771 -0.683467 0.772445
  H 0.265611 0.346346 -0.313215
  H 2.279959 -0.665653 -1.633364
  H 4.892450 -0.145511 -0.120156
  H 5.094703 -2.388624 -3.538554
  H 5.124328 -0.766472 -4.156066
  H 2.673056 -0.527380 -3.731268
  H 2.641611 -2.208423 -3.094857
  H 3.483253 -1.386221 -5.920753
  H 1.946117 -2.132685 -5.470096
  H 3.452178 -3.040583 -5.294535
  H 6.721134 -0.575940 -1.128929
 23
 30.733833
  C 0.952191 0.410393 0.523868
  C 2.343704 0.111536 0.362511
  H 3.038850 0.453702 1.134288
  C 2.921671 -0.384088 -0.844792
  C 4.297525 -0.480725 -0.991204
  C 5.045554 -0.906612 -2.074200
  C 4.630048 -1.405419 -3.418367
  C 3.151138 -1.517662 -3.789565
  C 3.010874 -2.051074 -5.218969
  O 6.376191 -0.902235 -1.984686
  H 0.601986 0.945779 1.393367
  H 1.571967 -0.659532 0.833049
  H 0.256920 0.288933 -0.298903
  H 2.263591 -0.669139 -1.632412
  H 4.886188 -0.160809 -0.123097
  H 5.103606 -2.390608 -3.537626
  H 5.132892 -0.758893 -4.151839
  H 2.674768 -0.534039 -3.740355
  H 2.643624 -2.210493 -3.111828
  H 3.495527 -1.384422 -5.932490
  H 1.959459 -2.134008 -5.493657
  H 3.464352 -3.037807 -5.312776
  H 6.713231 -0.581822 -1.126426
 23
 33.076121
  C 0.947422 0.433510 0.493175
  C 2.338638 0.098117 0.372067
  H 3.025489 0.469843 1.126047
  C 2.930325 -0.395338 -0.845780
  C 4.304898 -0.488194 -0.985833
  C 5.056477 -0.910388 -2.071576
  C 4.636441 -1.404348 -3.416418
  C 3.155702 -1.513532 -3.778084
  C 3.004960 -2.040326 -5.204755
  O 6.386197 -0.903468 -1.985032
  H 0.581455 0.959321 1.358411
  H 1.643659 -0.672910 0.851149
  H 0.261844 0.259512 -0.320514
  H 2.266682 -0.685912 -1.642900
  H 4.882816 -0.173913 -0.128991
  H 5.109808 -2.391500 -3.542381
  H 5.136525 -0.754199 -4.151501
  H 2.686456 -0.541030 -3.723154
  H 2.658187 -2.199649 -3.108179
  H 3.481354 -1.377783 -5.913121
  H 1.960228 -2.120330 -5.470636
  H 3.452562 -3.018837 -5.304620
  H 6.722090 -0.586202 -1.130367
 23
 35.038747
  C 0.955502 0.464266 0.503577
  C 2.342618 0.091655 0.398803
  H 3.033993 0.472667 1.139478
  C 2.919228 -0.393216 -0.827928
  C 4.287204 -0.489732 -0.982882
  C 5.033483 -0.909714 -2.071060
  C 4.623386 -1.402179 -3.414382
  C 3.160636 -1.520766 -3.792494
  C 3.031684 -2.050938 -5.229228
  O 6.367139 -0.899528 -1.983378
  H 0.597198 0.974715 1.380635
  H 1.716250 -0.684898 0.869950
  H 0.271374 0.278035 -0.303328
  H 2.242030 -0.680235 -1.624002
  H 4.880065 -0.175444 -0.120187
  H 5.099660 -2.379934 -3.535264
  H 5.123197 -0.751639 -4.139785
  H 2.685669 -0.554943 -3.742152
  H 2.662185 -2.206797 -3.131784
  H 3.518809 -1.375915 -5.940060
  H 1.976815 -2.139412 -5.512273
  H 3.493750 -3.039144 -5.324673
  H 6.703353 -0.583197 -1.129388
 23
 35.944988
  C 0.952922 0.479302 0.456372
  C 2.341396 0.070851 0.397957
  H 3.022218 0.468683 1.136443
  C 2.932401 -0.403370 -0.831932
  C 4.299387 -0.494040 -0.980498
  C 5.048438 -0.910442 -2.072144
  C 4.631582 -1.400252 -3.415446
  C 3.162237 -1.517750 -3.780663
  C 3.025605 -2.039888 -5.203064
  O 6.375480 -0.897224 -1.987777
  H 0.573188 0.985917 1.346952
  H 1.777314 -0.730491 0.857889
  H 0.292218 0.277607 -0.349325
  H 2.264848 -0.687504 -1.626186
  H 4.887938 -0.181775 -0.118437
  H 5.109640 -2.383787 -3.543919
  H 5.129233 -0.743812 -4.150035
  H 2.679007 -0.532584 -3.723971
  H 2.657928 -2.221718 -3.101382
  H 3.501306 -1.371767 -5.906831
  H 1.984381 -2.126732 -5.474549
  H 3.481480 -3.015588 -5.302158
  H 6.714665 -0.582879 -1.133442
 23
 35.721159
  C 0.958551 0.508039 0.441390
  C 2.341331 0.056965 0.420642
  H 3.023653 0.479944 1.156138
  C 2.938000 -0.409012 -0.822142
  C 4.302148 -0.497586 -0.972278
  C 5.052112 -0.910596 -2.066969
  C 4.634632 -1.397056 -3.410117
  C 3.161584 -1.519935 -3.778319
  C 3.026949 -2.040367 -5.208286
  O 6.378715 -0.890283 -1.983652
  H 0.576885 0.998930 1.312548
  H 1.844135 -0.776481 0.878981
  H 0.293456 0.288221 -0.379101
  H 2.266186 -0.690956 -1.614168
  H 4.887998 -0.188289 -0.117601
  H 5.115876 -2.376306 -3.540866
  H 5.128187 -0.738940 -4.139664
  H 2.678377 -0.546096 -3.721132
  H 2.664529 -2.221069 -3.110206
  H 3.504188 -1.362447 -5.915388
  H 1.976414 -2.131220 -5.482849
  H 3.489306 -3.020267 -5.310426
  H 6.720210 -0.577178 -1.129633
 23
 33.716573
  C 0.963019 0.528574 0.401655
  C 2.329294 0.030586 0.423097
  H 3.003915 0.500347 1.142736
  C 2.953613 -0.420012 -0.832941
  C 4.315067 -0.502927 -0.965144
  C 5.074016 -0.912372 -2.061713
  C 4.646957 -1.395012 -3.408599
  C 3.163368 -1.515872 -3.765261
  C 3.013059 -2.032177 -5.194365
  O 6.392224 -0.884046 -1.976189
  H 0.563809 1.016119 1.262899
  H 1.927809 -0.858319 0.891755
  H 0.298639 0.297493 -0.419535
  H 2.290346 -0.700476 -1.625105
  H 4.893537 -0.194358 -0.105476
  H 5.126769 -2.369252 -3.547451
  H 5.134305 -0.740616 -4.135822
  H 2.680606 -0.541169 -3.700032
  H 2.670774 -2.217425 -3.093427
  H 3.482944 -1.354436 -5.903925
  H 1.961308 -2.120384 -5.457847
  H 3.471982 -3.012078 -5.304217
  H 6.733711 -0.573581 -1.118637
 23
 33.261096
  C 0.970491 0.545416 0.381219
  C 2.328764 0.008171 0.430935
  H 2.996390 0.496865 1.145721
  C 2.953256 -0.430554 -0.820836
  C 4.313068 -0.510135 -0.957362
  C 5.070646 -0.914198 -2.060050
  C 4.638176 -1.392542 -3.406528
  C 3.174498 -1.515666 -3.752363
  C 3.022621 -2.030907 -5.192580
  O 6.385954 -0.879768 -1.979673
  H 0.567685 1.039408 1.233880
  H 1.999746 -0.895833 0.893616
  H 0.312014 0.321379 -0.449343
  H 2.289282 -0.712447 -1.612962
  H 4.892254 -0.203935 -0.102738
  H 5.121316 -2.370357 -3.552799
  H 5.126776 -0.724008 -4.146292
  H 2.688328 -0.539870 -3.681607
  H 2.685469 -2.224293 -3.077279
  H 3.488581 -1.348514 -5.903529
  H 1.971841 -2.122588 -5.453919
  H 3.482658 -3.005264 -5.307727
  H 6.734127 -0.572494 -1.123353
 23
 32.620029
  C 0.980912 0.555328 0.378950
  C 2.323959 -0.007794 0.446072
  H 2.990769 0.513318 1.135725
  C 2.954983 -0.433424 -0.823633
  C 4.310571 -0.514691 -0.955484
  C 5.072249 -0.916284 -2.059567
  C 4.646484 -1.391065 -3.404856
  C 3.169982 -1.519968 -3.766412
  C 3.030991 -2.030410 -5.198668
  O 6.383737 -0.876812 -1.974662
  H 0.571970 1.064511 1.233260
  H 2.085218 -0.933127 0.916425
  H 0.329747 0.341523 -0.448019
  H 2.286339 -0.708548 -1.617647
  H 4.893402 -0.209152 -0.092024
  H 5.134649 -2.363998 -3.550234
  H 5.133188 -0.727981 -4.130484
  H 2.680029 -0.550905 -3.700183
  H 2.678843 -2.228130 -3.101503
  H 3.500393 -1.344309 -5.904730
  H 1.981617 -2.124677 -5.467509
  H 3.497087 -3.007190 -5.311260
  H 6.730060 -0.571737 -1.115717
