 20
 0.000000
  C 1.023512 0.126665 0.334091
  C 2.493712 0.163470 0.405950
  C 3.218476 0.634361 1.609345
  C 2.376437 1.091992 2.792662
  H 3.029773 1.408443 3.599055
  C 3.185054 -0.276322 -0.721529
  C 4.573291 -0.349870 -0.885852
  C 5.128326 -0.836230 -2.045912
  H 4.502645 -1.176056 -2.860136
  O 6.394723 -0.947777 -2.298930
  H 0.539281 0.467590 1.240210
  H 0.691741 -0.889519 0.110861
  H 0.680076 0.733179 -0.505870
  H 3.879946 1.455594 1.308716
  H 3.885660 -0.169633 1.941850
  H 1.750013 0.287487 3.169980
  H 1.743738 1.935592 2.527978
  H 2.583190 -0.608912 -1.557211
  H 5.227877 -0.020342 -0.091761
  H 6.984166 -0.646554 -1.579190
 20
 -0.163081
  C 1.021971 0.166291 0.330131
  C 2.491715 0.204282 0.380097
  C 3.219186 0.656758 1.584840
  C 2.379951 1.044634 2.791094
  H 3.034870 1.325295 3.610265
  C 3.174190 -0.243440 -0.742949
  C 4.563115 -0.342171 -0.884481
  C 5.129307 -0.821561 -2.045681
  H 4.508346 -1.133987 -2.877652
  O 6.397154 -0.955868 -2.279120
  H 0.549312 0.719226 1.132555
  H 0.712960 -0.884454 0.405074
  H 0.654234 0.513647 -0.632743
  H 3.844283 1.510053 1.300836
  H 3.918068 -0.130711 1.883504
  H 1.762524 0.215960 3.126018
  H 1.740269 1.895544 2.576868
  H 2.577562 -0.555243 -1.590044
  H 5.209963 -0.039200 -0.074365
  H 6.980893 -0.678711 -1.542101
 20
 2.432065
  C 1.028784 0.247676 0.312129
  C 2.493718 0.236815 0.366234
  C 3.216702 0.717446 1.565752
  C 2.367945 0.976780 2.804075
  H 3.014649 1.251432 3.633428
  C 3.167463 -0.214478 -0.761447
  C 4.551489 -0.381377 -0.878769
  C 5.121885 -0.820951 -2.054223
  H 4.508100 -1.056537 -2.916585
  O 6.390367 -1.001567 -2.269287
  H 0.530562 0.906108 1.008062
  H 0.901911 -0.787028 0.670683
  H 0.617351 0.264693 -0.689961
  H 3.719366 1.650180 1.284129
  H 4.006755 0.007577 1.823243
  H 1.811768 0.088741 3.092718
  H 1.669177 1.795092 2.651666
  H 2.574517 -0.459806 -1.631747
  H 5.195031 -0.154019 -0.041002
  H 6.965038 -0.800673 -1.503390
 20
 16.481557
  C 1.018237 0.346772 0.296145
  C 2.457747 0.213075 0.358288
  C 3.212915 0.690099 1.553408
  C 2.375351 0.966176 2.797827
  H 3.033868 1.222379 3.623791
  C 3.142250 -0.205864 -0.784005
  C 4.524639 -0.386449 -0.880222
  C 5.111678 -0.827275 -2.042576
  H 4.517340 -1.062271 -2.917140
  O 6.389897 -1.013326 -2.234562
  H 0.477820 0.895722 1.045918
  H 1.229352 -0.729429 0.684297
  H 0.535922 0.201961 -0.659404
  H 3.719678 1.613634 1.258955
  H 3.985171 -0.037579 1.809921
  H 1.799717 0.092014 3.091138
  H 1.699435 1.804196 2.651705
  H 2.562255 -0.429516 -1.668453
  H 5.158297 -0.162084 -0.034710
  H 6.941463 -0.808681 -1.454775
 20
 32.814410
  C 1.005663 0.426517 0.284305
  C 2.413354 0.190891 0.363210
  C 3.200697 0.662620 1.558269
  C 2.373735 0.968589 2.803243
  H 3.041493 1.210596 3.625803
  C 3.121961 -0.211557 -0.799491
  C 4.499738 -0.389860 -0.888808
  C 5.095736 -0.832198 -2.044775
  H 4.511115 -1.073046 -2.923077
  O 6.384640 -1.009977 -2.228891
  H 0.460751 0.917307 1.068194
  H 1.542055 -0.738945 0.646652
  H 0.485785 0.224824 -0.638732
  H 3.732130 1.567666 1.256881
  H 3.948011 -0.089182 1.815843
  H 1.773384 0.113993 3.104729
  H 1.723080 1.825649 2.653282
  H 2.543782 -0.426237 -1.686986
  H 5.129079 -0.161951 -0.041225
  H 6.922948 -0.799543 -1.443168
 20
 40.328471
  C 0.992834 0.484179 0.277844
  C 2.386410 0.164970 0.383847
  C 3.193857 0.644028 1.578962
  C 2.369194 0.980468 2.816956
  H 3.038617 1.217827 3.639595
  C 3.109765 -0.233093 -0.805302
  C 4.480495 -0.401918 -0.897824
  C 5.076686 -0.830475 -2.062486
  H 4.489545 -1.066571 -2.940750
  O 6.363021 -0.992516 -2.253593
  H 0.457382 0.974487 1.067589
  H 1.826784 -0.835281 0.609596
  H 0.456997 0.256361 -0.627801
  H 3.744267 1.534402 1.270163
  H 3.922535 -0.121320 1.847108
  H 1.749445 0.142045 3.124676
  H 1.736865 1.848831 2.654425
  H 2.523285 -0.433619 -1.690753
  H 5.110462 -0.179149 -0.049211
  H 6.904808 -0.785351 -1.468792
 20
 41.430832
  C 0.991458 0.522787 0.279246
  C 2.364907 0.146275 0.407417
  C 3.184858 0.647108 1.594229
  C 2.363298 0.986084 2.833424
  H 3.033818 1.225596 3.654721
  C 3.097533 -0.257578 -0.801373
  C 4.463827 -0.420801 -0.899516
  C 5.053036 -0.834008 -2.076597
  H 4.456167 -1.061853 -2.951579
  O 6.331463 -0.975329 -2.284369
  H 0.477237 1.065247 1.047486
  H 2.110397 -0.954198 0.543178
  H 0.439506 0.259863 -0.605428
  H 3.727900 1.539297 1.277516
  H 3.917973 -0.111499 1.867134
  H 1.744092 0.147164 3.141054
  H 1.728808 1.852659 2.670746
  H 2.501151 -0.438942 -1.684793
  H 5.097155 -0.206144 -0.051151
  H 6.886347 -0.773517 -1.505814
 20
 43.352419
  C 0.995160 0.523077 0.304872
  C 2.350902 0.171206 0.418544
  C 3.177557 0.661570 1.600390
  C 2.363930 0.978465 2.851639
  H 3.039106 1.198923 3.674320
  C 3.072080 -0.283894 -0.789492
  C 4.450597 -0.433837 -0.899361
  C 5.029417 -0.833246 -2.079172
  H 4.427411 -1.065632 -2.949201
  O 6.309975 -0.953525 -2.305117
  H 0.503359 1.121811 1.045503
  H 2.354586 -1.005650 0.363580
  H 0.415076 0.213855 -0.546008
  H 3.711653 1.562124 1.290987
  H 3.919441 -0.092779 1.861036
  H 1.742626 0.135368 3.142880
  H 1.730489 1.849514 2.710649
  H 2.473284 -0.439973 -1.676112
  H 5.086917 -0.213561 -0.055068
  H 6.870241 -0.746914 -1.532634
 20
 39.892340
  C 1.001030 0.510527 0.334263
  C 2.331202 0.201432 0.430428
  C 3.171252 0.664502 1.598411
  C 2.379860 1.011527 2.856351
  H 3.069512 1.216815 3.670984
  C 3.036071 -0.334688 -0.761838
  C 4.439488 -0.463965 -0.887492
  C 5.015833 -0.809839 -2.077466
  H 4.415547 -1.017526 -2.954790
  O 6.300271 -0.915323 -2.311402
  H 0.500438 1.073241 1.098186
  H 2.518560 -1.072249 0.136101
  H 0.406368 0.204334 -0.508096
  H 3.730639 1.546554 1.278419
  H 3.894381 -0.109322 1.857795
  H 1.738296 0.187406 3.158123
  H 1.770093 1.899483 2.715555
  H 2.439009 -0.459041 -1.656297
  H 5.073404 -0.266429 -0.035782
  H 6.859436 -0.730857 -1.533292
 20
 28.748160
  C 1.013785 0.511792 0.346269
  C 2.323645 0.223594 0.456125
  C 3.178805 0.652715 1.605688
  C 2.408518 1.064795 2.856994
  H 3.106467 1.243326 3.670884
  C 2.989770 -0.436936 -0.721820
  C 4.417952 -0.516712 -0.864353
  C 5.002085 -0.753698 -2.075774
  H 4.406631 -0.902805 -2.968830
  O 6.286007 -0.822858 -2.311919
  H 0.497949 1.075501 1.101997
  H 2.602256 -1.291216 -0.070703
  H 0.424601 0.202952 -0.499285
  H 3.788639 1.494957 1.266519
  H 3.860736 -0.154673 1.878033
  H 1.720086 0.283916 3.169605
  H 1.849775 1.982926 2.696639
  H 2.404487 -0.464670 -1.634776
  H 5.043721 -0.370978 0.003535
  H 6.845619 -0.692896 -1.521812
 20
 20.727216
  C 1.010049 0.469153 0.379959
  C 2.329633 0.230036 0.458955
  C 3.193648 0.623636 1.605464
  C 2.451430 1.127941 2.837753
  H 3.160145 1.306386 3.642359
  C 2.949239 -0.506327 -0.695866
  C 4.396101 -0.554922 -0.837582
  C 4.994387 -0.686158 -2.058286
  H 4.409439 -0.751776 -2.968733
  O 6.279062 -0.738416 -2.282748
  H 0.482301 1.019196 1.138087
  H 2.581008 -1.484195 -0.318284
  H 0.421407 0.145719 -0.461014
  H 3.875213 1.404053 1.250272
  H 3.811581 -0.227354 1.901509
  H 1.725502 0.397577 3.185531
  H 1.937638 2.064152 2.635014
  H 2.423716 -0.352013 -1.637371
  H 5.011568 -0.488477 0.047352
  H 6.832204 -0.679452 -1.478849
 20
 18.941075
  C 0.976054 0.364355 0.458036
  C 2.311531 0.193380 0.472217
  C 3.190696 0.573581 1.611483
  C 2.486269 1.199983 2.808161
  H 3.217313 1.442312 3.575342
  C 2.925594 -0.464587 -0.722775
  C 4.382589 -0.540237 -0.829685
  C 5.005189 -0.655726 -2.039605
  H 4.441007 -0.679459 -2.965205
  O 6.292922 -0.737996 -2.235814
  H 0.440900 0.845472 1.255542
  H 2.537398 -1.496871 -0.624460
  H 0.380288 0.038791 -0.377937
  H 3.944964 1.271233 1.231880
  H 3.726402 -0.316634 1.953897
  H 1.761742 0.516107 3.242735
  H 1.978051 2.119375 2.528756
  H 2.470174 -0.111206 -1.651970
  H 4.978151 -0.527713 0.071085
  H 6.828039 -0.715405 -1.418162
 20
 18.857567
  C 0.956762 0.219222 0.537325
  C 2.302701 0.159098 0.489405
  C 3.191396 0.571521 1.610248
  C 2.500105 1.262789 2.778059
  H 3.242402 1.575321 3.507590
  C 2.918702 -0.370635 -0.762007
  C 4.375088 -0.524296 -0.830815
  C 5.021695 -0.649146 -2.026973
  H 4.484283 -0.602674 -2.967674
  O 6.304841 -0.824423 -2.192366
  H 0.416024 0.575185 1.393790
  H 2.465179 -1.368584 -0.906591
  H 0.355403 -0.097294 -0.297845
  H 3.960915 1.235825 1.201582
  H 3.707961 -0.314890 1.991636
  H 1.804234 0.595192 3.280054
  H 1.960631 2.146794 2.445975
  H 2.545762 0.183339 -1.631739
  H 4.945522 -0.575977 0.084850
  H 6.815665 -0.877609 -1.360985
