 22
 0.000000
  H 1.463488 0.175846 0.488891
  C 2.543962 0.151984 0.428950
  C 3.285451 0.622869 1.600343
  C 2.399320 1.083549 2.748077
  H 3.005552 1.419827 3.584910
  C 3.092144 -0.319513 -0.744873
  C 4.473663 -0.419804 -0.994693
  C 5.098768 -0.876144 -2.132214
  C 4.598867 -1.388010 -3.408434
  C 3.112175 -1.501258 -3.691779
  H 2.969440 -1.902503 -4.692093
  H 6.182720 -0.862806 -2.098723
  H 3.954506 1.439917 1.300637
  H 3.955117 -0.173992 1.949039
  H 1.759313 0.274945 3.093684
  H 1.758781 1.906153 2.438585
  H 2.406576 -0.628820 -1.515156
  H 5.130991 -0.100054 -0.197852
  H 5.069262 -2.372499 -3.546375
  H 5.069866 -0.772226 -4.188548
  H 2.626601 -0.529354 -3.651530
  H 2.626062 -2.175693 -2.991053
 22
 2.240558
  H 1.470381 0.220393 0.514763
  C 2.547872 0.171091 0.416406
  C 3.309699 0.613541 1.585966
  C 2.432740 1.065279 2.746853
  H 3.044141 1.382416 3.586089
  C 3.037283 -0.297915 -0.787947
  C 4.416590 -0.418544 -1.036940
  C 5.101995 -0.864205 -2.137359
  C 4.625750 -1.392177 -3.412089
  C 3.139400 -1.517452 -3.684985
  H 2.993260 -1.940260 -4.677345
  H 6.182303 -0.827714 -2.056885
  H 3.979870 1.437250 1.306864
  H 3.973475 -0.190403 1.929542
  H 1.787813 0.256287 3.082869
  H 1.797604 1.897653 2.452488
  H 2.281081 -0.561605 -1.508838
  H 4.925638 -0.073930 -0.150522
  H 5.107245 -2.373725 -3.541285
  H 5.104741 -0.796429 -4.203702
  H 2.650381 -0.547748 -3.666592
  H 2.663848 -2.188401 -2.974923
 22
 6.339049
  H 1.482428 0.354086 0.450030
  C 2.559915 0.269115 0.369521
  C 3.307460 0.599911 1.583170
  C 2.420581 0.978332 2.765249
  H 3.027860 1.213576 3.634855
  C 3.067470 -0.132716 -0.854983
  C 4.444122 -0.335288 -1.086040
  C 5.108533 -0.806960 -2.169141
  C 4.620694 -1.431217 -3.396011
  C 3.134392 -1.596242 -3.634706
  H 2.970876 -2.098185 -4.583632
  H 6.189205 -0.742922 -2.120764
  H 3.996776 1.429405 1.385330
  H 3.946362 -0.244732 1.871954
  H 1.752056 0.161577 3.032378
  H 1.818653 1.853328 2.529600
  H 2.323514 -0.294232 -1.610192
  H 4.900210 0.000527 -0.149639
  H 5.112147 -2.414333 -3.453413
  H 5.073125 -0.872468 -4.225748
  H 2.636222 -0.633045 -3.682358
  H 2.673879 -2.197470 -2.855306
 22
 9.458320
  H 1.478917 0.498633 0.373707
  C 2.566094 0.384276 0.318444
  C 3.310569 0.566988 1.565837
  C 2.419113 0.878384 2.752766
  H 3.006991 0.959872 3.665127
  C 3.086479 0.069670 -0.919090
  C 4.448928 -0.224669 -1.151141
  C 5.131811 -0.741237 -2.214257
  C 4.631511 -1.470882 -3.368029
  C 3.134019 -1.674142 -3.505829
  H 2.922234 -2.239629 -4.406838
  H 6.211278 -0.644359 -2.186996
  H 4.046341 1.382329 1.444600
  H 3.890186 -0.347647 1.765041
  H 1.705057 0.074757 2.908088
  H 1.852898 1.786391 2.594873
  H 2.358893 0.008193 -1.723642
  H 4.844286 0.150393 -0.220043
  H 5.123983 -2.459424 -3.346528
  H 5.031818 -0.972914 -4.265034
  H 2.629955 -0.715049 -3.604230
  H 2.718950 -2.197687 -2.644380
 22
 17.727195
  H 1.497734 0.653382 0.353222
  C 2.560243 0.470510 0.296751
  C 3.306168 0.535378 1.563408
  C 2.406349 0.819064 2.761895
  H 3.002921 0.832237 3.675545
  C 3.086305 0.227190 -0.948803
  C 4.441693 -0.176249 -1.208663
  C 5.127060 -0.689043 -2.239272
  C 4.652043 -1.519286 -3.364399
  C 3.146582 -1.749266 -3.443923
  H 2.934740 -2.333439 -4.342004
  H 6.205138 -0.564219 -2.214024
  H 4.091621 1.303776 1.515296
  H 3.811244 -0.430105 1.722688
  H 1.650453 0.049051 2.881344
  H 1.925167 1.787960 2.672056
  H 2.366052 0.220065 -1.765704
  H 4.775984 0.249882 -0.276671
  H 5.183649 -2.477391 -3.352097
  H 4.964688 -0.980886 -4.275741
  H 2.604910 -0.810101 -3.539123
  H 2.783698 -2.332529 -2.600373
 22
 25.843217
  H 1.539028 0.796593 0.287142
  C 2.604202 0.596875 0.251712
  C 3.295766 0.497465 1.546306
  C 2.373234 0.700351 2.739730
  H 2.926004 0.606051 3.666419
  C 3.153473 0.398076 -0.975934
  C 4.476219 -0.083747 -1.294883
  C 5.152559 -0.628390 -2.306046
  C 4.627620 -1.532583 -3.348955
  C 3.133587 -1.827174 -3.308827
  H 2.871839 -2.482701 -4.136916
  H 6.220107 -0.515332 -2.320604
  H 4.106471 1.230810 1.591611
  H 3.762993 -0.494625 1.617059
  H 1.577412 -0.034445 2.749386
  H 1.926296 1.688972 2.712766
  H 2.478351 0.572717 -1.817665
  H 4.749037 0.366191 -0.346031
  H 5.194706 -2.469562 -3.266186
  H 4.897663 -1.081011 -4.311555
  H 2.548053 -0.917751 -3.410915
  H 2.858306 -2.332196 -2.388924
 22
 33.124024
  H 1.595884 0.996232 0.233048
  C 2.646097 0.680839 0.207242
  C 3.276752 0.414317 1.500800
  C 2.332875 0.599674 2.678627
  H 2.838424 0.371627 3.607578
  C 3.229385 0.565863 -1.014615
  C 4.529744 0.027509 -1.358886
  C 5.171070 -0.549273 -2.358294
  C 4.606839 -1.538886 -3.306563
  C 3.125492 -1.898264 -3.125134
  H 2.828433 -2.604675 -3.901364
  H 6.229866 -0.442330 -2.403664
  H 4.148701 1.056970 1.640666
  H 3.644722 -0.624345 1.498352
  H 1.472610 -0.053889 2.602999
  H 1.984178 1.619902 2.726773
  H 2.558848 0.744867 -1.868561
  H 4.782229 0.606782 -0.440050
  H 5.203321 -2.457915 -3.221775
  H 4.752771 -1.120909 -4.301124
  H 2.488706 -1.025489 -3.222304
  H 2.950672 -2.376361 -2.168018
 22
 35.870397
  H 1.615749 1.123887 0.249000
  C 2.633441 0.763647 0.196010
  C 3.279634 0.373595 1.444485
  C 2.348286 0.467693 2.645508
  H 2.860290 0.156769 3.545433
  C 3.192071 0.713669 -1.045985
  C 4.434651 0.116061 -1.450602
  C 5.132062 -0.511245 -2.370134
  C 4.617588 -1.602983 -3.230453
  C 3.136270 -1.927270 -3.033682
  H 2.837878 -2.719301 -3.717314
  H 6.197637 -0.371974 -2.409460
  H 4.164056 0.993641 1.624161
  H 3.647061 -0.661784 1.360548
  H 1.485131 -0.171999 2.515514
  H 2.002834 1.484614 2.789957
  H 2.545048 1.033202 -1.876464
  H 4.695241 0.748518 -0.562785
  H 5.230934 -2.489848 -3.050584
  H 4.785852 -1.299170 -4.262895
  H 2.521526 -1.059820 -3.241790
  H 2.941066 -2.261752 -2.017940
 22
 37.791024
  H 1.533536 1.031817 0.293952
  C 2.543877 0.681741 0.217516
  C 3.248279 0.318541 1.440758
  C 2.400716 0.485968 2.697828
  H 2.952081 0.161135 3.572998
  C 3.095950 0.682309 -1.022493
  C 4.382962 0.086128 -1.499419
  C 5.135564 -0.517115 -2.351636
  C 4.654987 -1.620494 -3.217348
  C 3.163455 -1.907622 -3.079375
  H 2.899163 -2.745209 -3.685115
  H 6.174979 -0.309134 -2.355865
  H 4.163416 0.904687 1.561685
  H 3.565128 -0.744160 1.360848
  H 1.478258 -0.120410 2.641972
  H 2.121158 1.522615 2.825146
  H 2.466461 1.102423 -1.835793
  H 4.652761 0.832644 -0.694538
  H 5.209635 -2.523030 -2.972546
  H 4.889168 -1.351703 -4.228093
  H 2.578794 -1.049138 -3.414608
  H 2.895541 -2.148972 -2.041502
 22
 38.294210
  H 1.613489 1.227354 0.286866
  C 2.585981 0.845306 0.177841
  C 3.245537 0.245759 1.332704
  C 2.397893 0.305621 2.593634
  H 2.906686 -0.174682 3.410297
  C 3.133868 0.907751 -1.063156
  C 4.311170 0.215549 -1.570460
  C 5.082605 -0.473840 -2.329334
  C 4.628873 -1.644719 -3.083209
  C 3.154149 -1.982632 -2.882231
  H 2.890069 -2.854641 -3.473355
  H 6.145061 -0.210315 -2.390467
  H 4.204336 0.728708 1.514084
  H 3.483780 -0.803326 1.109106
  H 1.453933 -0.200245 2.461878
  H 2.198134 1.332446 2.862430
  H 2.539285 1.446304 -1.852024
  H 4.590334 1.038799 -0.826451
  H 5.241455 -2.502748 -2.772388
  H 4.834457 -1.449753 -4.128276
  H 2.526120 -1.148327 -3.199118
  H 2.940611 -2.213703 -1.838255
 22
 40.153932
  H 1.607546 1.320530 0.372468
  C 2.584442 0.892258 0.205284
  C 3.263327 0.226819 1.335093
  C 2.432873 0.219066 2.607460
  H 2.970168 -0.276631 3.405965
  C 3.142354 1.015743 -1.070783
  C 4.209761 0.269567 -1.621335
  C 5.027401 -0.449490 -2.313768
  C 4.639112 -1.713821 -3.026538
  C 3.149743 -2.031099 -2.930985
  H 2.938900 -2.964277 -3.439738
  H 6.085503 -0.223796 -2.339555
  H 4.227035 0.709389 1.540982
  H 3.510693 -0.805277 1.052382
  H 1.488093 -0.310152 2.455971
  H 2.208715 1.233826 2.928450
  H 2.575996 1.587069 -1.797814
  H 4.424268 1.297179 -0.904797
  H 5.226120 -2.526059 -2.602381
  H 4.938419 -1.609042 -4.070796
  H 2.559459 -1.250832 -3.398423
  H 2.838245 -2.132018 -1.894883
 22
 41.974548
  H 1.674766 1.371644 0.408001
  C 2.637364 0.924381 0.225287
  C 3.303678 0.215867 1.328398
  C 2.436791 0.124871 2.579281
  H 2.962049 -0.408664 3.366481
  C 3.220236 1.105647 -1.067908
  C 4.205733 0.293745 -1.654982
  C 5.010922 -0.473674 -2.301548
  C 4.610645 -1.761309 -2.977468
  C 3.117033 -2.044510 -2.917986
  H 2.904739 -2.993477 -3.402993
  H 6.074159 -0.264962 -2.360727
  H 4.248556 0.708533 1.589788
  H 3.582321 -0.793697 0.998637
  H 1.510106 -0.405170 2.372712
  H 2.189567 1.116639 2.951331
  H 2.632773 1.668623 -1.788702
  H 4.285573 1.543041 -0.820461
  H 5.169066 -2.567412 -2.495592
  H 4.946492 -1.707670 -4.015200
  H 2.553779 -1.268706 -3.430160
  H 2.773147 -2.102827 -1.889243
