19
 0
 C -2.71400744 0.41592833 2.53004803
 C -2.66668658 -0.93887105 1.83410192
 C -4.07742708 -1.38093533 1.44869571
 C -1.75740335 -1.03151906 0.60754777
 C -1.07638465 0.18979549 0.04487727
 O -1.58950370 -2.12104029 0.04762842
 H -3.33297093 0.36514617 3.43254287
 H -3.13917383 1.18847359 1.88016058
 H -1.71305750 0.73693376 2.83684545
 H -2.26011016 -1.65843905 2.55687046
 H -4.51113435 -0.71002982 0.69907928
 H -4.73703283 -1.39142024 2.32294452
 H -4.07303200 -2.39070562 1.02396301
 H -1.23101066 1.08680014 0.64164493
 H -1.46037108 0.37781549 -0.96133461
 H 0.00000000 0.00000000 0.00000000
 O 2.95284803 -0.16801267 -0.05299053
 H 3.09107554 -0.44436833 -0.97140631
 H 2.00000000 0.00000000 0.00000000
