 20
 0.000000
  H 1.487190 0.168064 0.468485
  C 2.567396 0.156447 0.440919
  C 3.304565 0.627848 1.613974
  C 2.435193 1.095646 2.775616
  C 3.288948 1.566341 3.949092
  C 3.154733 -0.309941 -0.718112
  C 4.532042 -0.401338 -0.946247
  C 5.074113 -0.874305 -2.124807
  H 4.482593 -1.213849 -2.967893
  O 6.342663 -0.967145 -2.361113
  H 3.971543 1.446712 1.315424
  H 3.970300 -0.170597 1.965816
  H 1.790801 0.280426 3.109523
  H 1.792466 1.916317 2.452005
  H 3.921986 0.762798 4.318248
  H 2.656280 1.896456 4.768969
  H 3.923783 2.400677 3.660015
  H 2.491419 -0.627989 -1.509388
  H 5.214052 -0.087866 -0.166655
  H 6.926224 -0.671387 -1.630933
 20
 -0.339277
  H 1.525035 0.228850 0.473077
  C 2.605470 0.193533 0.435348
  C 3.324212 0.665262 1.619164
  C 2.429059 1.069312 2.784885
  C 3.248850 1.564826 3.971505
  C 3.184923 -0.287033 -0.719650
  C 4.564503 -0.398015 -0.937965
  C 5.068754 -0.893898 -2.125517
  H 4.398795 -1.208331 -2.919893
  O 6.315975 -1.038686 -2.420657
  H 3.954852 1.520062 1.338468
  H 4.037717 -0.098385 1.953159
  H 1.826810 0.214727 3.097995
  H 1.741674 1.856725 2.469530
  H 3.921668 0.788848 4.332358
  H 2.594638 1.847721 4.792141
  H 3.839806 2.435270 3.700685
  H 2.529963 -0.602021 -1.520258
  H 5.249922 -0.089519 -0.161213
  H 6.948124 -0.764767 -1.722680
 20
 -0.326338
  H 1.527963 0.287063 0.455961
  C 2.607704 0.229495 0.426123
  C 3.324756 0.694812 1.613366
  C 2.430135 1.035782 2.799929
  C 3.242131 1.565215 3.976962
  C 3.185921 -0.263740 -0.723827
  C 4.564285 -0.402354 -0.933765
  C 5.064260 -0.908439 -2.118948
  H 4.391252 -1.207978 -2.916383
  O 6.309476 -1.080034 -2.407997
  H 3.908029 1.586761 1.342282
  H 4.079234 -0.039620 1.918009
  H 1.885909 0.142984 3.113720
  H 1.691076 1.783944 2.507378
  H 3.956099 0.821809 4.323883
  H 2.586915 1.812543 4.808172
  H 3.786919 2.465306 3.701969
  H 2.530098 -0.567206 -1.528018
  H 5.251851 -0.106945 -0.153783
  H 6.943710 -0.821410 -1.706168
 20
 -0.286680
  H 1.531167 0.340371 0.443198
  C 2.609864 0.262716 0.420261
  C 3.325661 0.721982 1.610471
  C 2.434009 1.002949 2.815052
  C 3.234589 1.568078 3.982889
  C 3.185480 -0.241891 -0.725932
  C 4.561770 -0.409331 -0.928417
  C 5.057581 -0.918692 -2.113997
  H 4.382797 -1.199450 -2.916509
  O 6.300485 -1.114143 -2.397704
  H 3.862447 1.646339 1.350326
  H 4.116161 0.015996 1.888231
  H 1.949292 0.076271 3.129547
  H 1.646753 1.708466 2.542856
  H 3.975022 0.851857 4.330775
  H 2.576094 1.799492 4.816254
  H 3.747412 2.484118 3.698196
  H 2.528141 -0.528242 -1.535140
  H 5.251049 -0.134589 -0.142835
  H 6.936221 -0.873305 -1.691019
 20
 -0.183042
  H 1.529432 0.373332 0.441605
  C 2.610475 0.283812 0.421782
  C 3.325375 0.738623 1.611398
  C 2.438294 0.973516 2.828854
  C 3.225836 1.573949 3.987027
  C 3.184057 -0.226568 -0.723141
  C 4.558110 -0.412642 -0.922408
  C 5.050650 -0.919959 -2.110454
  H 4.373313 -1.186748 -2.918368
  O 6.291726 -1.129482 -2.391775
  H 3.824474 1.684854 1.360982
  H 4.144319 0.054056 1.869629
  H 2.008149 0.024888 3.145688
  H 1.611054 1.638392 2.570321
  H 3.972787 0.870669 4.358687
  H 2.561219 1.819042 4.807901
  H 3.734286 2.490545 3.682667
  H 2.525967 -0.497880 -1.537806
  H 5.248428 -0.155016 -0.132681
  H 6.928865 -0.901756 -1.681254
 20
 -0.027108
  H 1.531191 0.386403 0.443903
  C 2.608811 0.292751 0.424460
  C 3.324706 0.747228 1.616156
  C 2.442027 0.952324 2.843443
  C 3.218707 1.581005 3.995884
  C 3.179842 -0.214824 -0.722643
  C 4.552383 -0.417456 -0.918078
  C 5.044419 -0.911973 -2.111536
  H 4.369196 -1.156803 -2.925405
  O 6.284433 -1.131370 -2.390659
  H 3.801165 1.709208 1.370139
  H 4.157579 0.080495 1.860308
  H 2.048822 -0.014365 3.164764
  H 1.588792 1.585414 2.592977
  H 3.948998 0.884237 4.400631
  H 2.542981 1.860791 4.799887
  H 3.741609 2.478163 3.672947
  H 2.522492 -0.465022 -1.543975
  H 5.242535 -0.185184 -0.119369
  H 6.920793 -0.921734 -1.674548
 20
 0.181711
  H 1.527456 0.388292 0.450152
  C 2.606208 0.297453 0.429851
  C 3.319410 0.771459 1.614783
  C 2.444646 0.937755 2.853302
  C 3.211280 1.585775 4.002388
  C 3.179013 -0.204565 -0.718902
  C 4.549250 -0.424589 -0.909808
  C 5.040488 -0.918720 -2.103439
  H 4.366562 -1.147635 -2.923962
  O 6.279459 -1.151169 -2.377589
  H 3.751441 1.752403 1.366444
  H 4.182487 0.138249 1.845277
  H 2.090280 -0.045091 3.171136
  H 1.566175 1.540311 2.616264
  H 3.932042 0.892223 4.431448
  H 2.528226 1.886792 4.791579
  H 3.745147 2.471575 3.668664
  H 2.519712 -0.428504 -1.546077
  H 5.238540 -0.209319 -0.105477
  H 6.914759 -0.951747 -1.657869
 20
 0.463867
  H 1.523543 0.384367 0.458900
  C 2.602378 0.303602 0.434487
  C 3.314944 0.789573 1.615455
  C 2.453103 0.911577 2.868596
  C 3.200462 1.602737 4.005788
  C 3.176012 -0.188932 -0.717755
  C 4.543228 -0.436583 -0.900708
  C 5.037800 -0.910804 -2.101110
  H 4.368908 -1.103208 -2.935095
  O 6.273671 -1.170795 -2.365215
  H 3.702137 1.790441 1.368019
  H 4.206231 0.191778 1.825735
  H 2.159268 -0.089176 3.192058
  H 1.537885 1.462556 2.645710
  H 3.928332 0.933741 4.459111
  H 2.506750 1.914509 4.782825
  H 3.724304 2.487166 3.652994
  H 2.522268 -0.382676 -1.556902
  H 5.226461 -0.265289 -0.081270
  H 6.904899 -1.008807 -1.632307
 20
 0.224639
  H 1.516145 0.387329 0.460998
  C 2.594604 0.300115 0.441227
  C 3.307604 0.788959 1.619549
  C 2.440692 0.932079 2.867427
  C 3.201603 1.597060 4.010822
  C 3.168464 -0.202003 -0.707078
  C 4.539892 -0.422950 -0.894834
  C 5.034663 -0.925233 -2.084665
  H 4.363243 -1.152887 -2.907320
  O 6.273951 -1.162315 -2.353485
  H 3.713874 1.780230 1.368551
  H 4.187851 0.177501 1.839370
  H 2.114075 -0.059003 3.186798
  H 1.546181 1.512370 2.639874
  H 3.954469 0.928451 4.420510
  H 2.520350 1.864070 4.814776
  H 3.696841 2.506644 3.677185
  H 2.512561 -0.439278 -1.532702
  H 5.226067 -0.211926 -0.086988
  H 6.908119 -0.957578 -1.633675
 20
 0.026675
  H 1.508665 0.338299 0.481709
  C 2.587392 0.273549 0.455387
  C 3.300888 0.779245 1.627741
  C 2.425504 0.989060 2.860156
  C 3.202570 1.644589 3.996478
  C 3.162564 -0.246396 -0.683842
  C 4.535855 -0.446675 -0.875972
  C 5.030520 -0.951402 -2.063814
  H 4.356161 -1.212957 -2.874022
  O 6.271391 -1.174781 -2.337414
  H 3.747760 1.746828 1.352337
  H 4.155917 0.143392 1.879441
  H 2.047264 0.021315 3.197305
  H 1.561567 1.606773 2.608970
  H 3.938622 0.960653 4.411882
  H 2.528119 1.935847 4.797533
  H 3.719258 2.538223 3.654088
  H 2.506598 -0.510805 -1.501748
  H 5.224520 -0.207676 -0.078143
  H 6.905975 -0.962210 -1.620647
 20
 -0.075858
  H 1.512013 0.282020 0.467919
  C 2.590782 0.222178 0.440854
  C 3.305440 0.730479 1.611631
  C 2.423810 0.987478 2.830571
  C 3.211408 1.631600 3.966133
  C 3.169481 -0.284545 -0.702639
  C 4.544724 -0.464198 -0.897876
  C 5.044964 -0.947125 -2.092506
  H 4.374493 -1.199459 -2.909006
  O 6.288824 -1.143973 -2.371883
  H 3.791761 1.676507 1.327727
  H 4.134714 0.068639 1.883311
  H 2.005941 0.039564 3.177864
  H 1.586569 1.633525 2.560596
  H 3.948197 0.942114 4.370244
  H 2.543027 1.918284 4.774020
  H 3.728296 2.526481 3.627298
  H 2.515359 -0.552722 -1.521906
  H 5.229515 -0.227485 -0.096337
  H 6.921134 -0.928970 -1.654094
 20
 -0.134649
  H 1.504185 0.242548 0.494872
  C 2.584439 0.198042 0.462198
  C 3.298909 0.715683 1.628994
  C 2.413299 1.011020 2.834586
  C 3.210432 1.636944 3.973953
  C 3.164741 -0.296949 -0.685756
  C 4.541174 -0.468922 -0.882844
  C 5.046548 -0.913220 -2.090235
  H 4.379079 -1.141972 -2.915298
  O 6.291959 -1.094420 -2.373240
  H 3.813927 1.642191 1.335638
  H 4.108610 0.036490 1.919179
  H 1.957927 0.082191 3.184478
  H 1.603425 1.684652 2.548794
  H 3.939744 0.935046 4.371519
  H 2.547588 1.925589 4.785584
  H 3.736706 2.528174 3.640059
  H 2.511073 -0.557636 -1.506778
  H 5.222513 -0.256877 -0.071283
  H 6.921843 -0.899147 -1.647354
 20
 -0.281465
  H 1.494105 0.162706 0.548529
  C 2.574806 0.158320 0.502913
  C 3.287152 0.692017 1.664011
  C 2.390099 1.095553 2.827913
  C 3.205160 1.633748 3.998994
  C 3.156760 -0.314551 -0.653413
  C 4.536276 -0.426462 -0.871354
  C 5.041538 -0.888291 -2.072118
  H 4.371404 -1.176829 -2.875775
  O 6.289002 -1.024076 -2.371041
  H 3.885015 1.559571 1.353138
  H 4.032509 -0.035892 2.010464
  H 1.809958 0.232620 3.160665
  H 1.682362 1.860396 2.502540
  H 3.896998 0.881596 4.371047
  H 2.549356 1.918476 4.817573
  H 3.774851 2.512601 3.706523
  H 2.499324 -0.610981 -1.458626
  H 5.219429 -0.151253 -0.080414
  H 6.920636 -0.774090 -1.663810
 20
 -0.231673
  H 1.493448 0.161809 0.548832
  C 2.573647 0.157504 0.503728
  C 3.286503 0.692598 1.666170
  C 2.388872 1.099355 2.828253
  C 3.203886 1.634471 4.001414
  C 3.155625 -0.315107 -0.653108
  C 4.539425 -0.428211 -0.872799
  C 5.044478 -0.890298 -2.075746
  H 4.374764 -1.178124 -2.877809
  O 6.290299 -1.025545 -2.375759
  H 3.886676 1.558085 1.355565
  H 4.030991 -0.037808 2.014864
  H 1.804726 0.238733 3.159601
  H 1.684837 1.867075 2.501513
  H 3.894511 0.880573 4.372978
  H 2.548394 1.918520 4.819027
  H 3.774295 2.511958 3.711433
  H 2.497413 -0.610139 -1.457849
  H 5.223281 -0.153862 -0.081971
  H 6.920670 -0.776407 -1.670577
