 20
 0.000000
  C 0.957269 -0.016710 -0.005832
  C 2.453346 -0.000341 0.011034
  C 3.169593 0.811687 0.795786
  C 4.607269 0.829112 0.812083
  C 5.328063 1.645152 1.601272
  C 6.766330 1.660979 1.615966
  C 7.484715 2.471215 2.399532
  C 8.974626 2.502253 2.428935
  H 0.595089 -0.756263 -0.718625
  H 0.562065 0.955064 -0.301687
  H 0.561017 -0.274829 0.976020
  H 2.953415 -0.690793 -0.655184
  H 2.659058 1.497727 1.460215
  H 5.111727 0.140599 0.145759
  H 4.824075 2.333787 2.267703
  H 7.272843 0.973088 0.950245
  H 6.986024 3.161890 3.067943
  H 9.408142 1.784733 1.734578
  H 9.334192 2.269945 3.432537
  H 9.333658 3.497776 2.163410
 20
 1.062715
  C 0.965493 0.023936 0.036712
  C 2.452749 -0.071701 -0.033637
  C 3.191941 0.732998 0.732028
  C 4.624097 0.772701 0.778026
  C 5.329992 1.608015 1.563508
  C 6.768285 1.647697 1.609551
  C 7.479987 2.487214 2.398974
  C 8.968568 2.540736 2.458332
  H 0.470070 -0.589980 -0.707482
  H 0.695454 1.069466 -0.101832
  H 0.611895 -0.273956 1.022825
  H 2.898117 -0.768465 -0.725583
  H 2.633228 1.418153 1.359592
  H 5.146118 0.076992 0.131618
  H 4.804803 2.301571 2.208866
  H 7.289640 0.951537 0.961855
  H 6.960091 3.183604 3.046885
  H 9.413209 1.814451 1.782018
  H 9.314929 2.335999 3.472010
  H 9.322973 3.536223 2.188411
 20
 3.897817
  C 1.000941 0.061170 0.080218
  C 2.473125 -0.119683 -0.057329
  C 3.224538 0.687403 0.694581
  C 4.636557 0.733199 0.764554
  C 5.323111 1.593389 1.540502
  C 6.761961 1.640757 1.611017
  C 7.443925 2.492241 2.379210
  C 8.934045 2.554340 2.463641
  H 0.426885 -0.378788 -0.716725
  H 0.853263 1.152808 0.138892
  H 0.659545 -0.358628 1.019698
  H 2.871271 -0.813417 -0.768171
  H 2.619355 1.384507 1.276656
  H 5.170796 0.022450 0.147476
  H 4.780314 2.302240 2.158092
  H 7.299761 0.929899 0.991587
  H 6.906986 3.203084 2.998715
  H 9.396052 1.810967 1.813840
  H 9.263378 2.378266 3.490716
  H 9.289161 3.545595 2.173229
 20
 8.470541
  C 1.011844 0.095937 0.114602
  C 2.468289 -0.159722 -0.080404
  C 3.232756 0.648241 0.658966
  C 4.659909 0.701897 0.750290
  C 5.330995 1.580153 1.519088
  C 6.759776 1.634837 1.609496
  C 7.426275 2.504536 2.371222
  C 8.917660 2.575426 2.477160
  H 0.373523 -0.186643 -0.715648
  H 1.005129 1.181721 0.329027
  H 0.656601 -0.419441 1.015582
  H 2.827821 -0.866683 -0.808193
  H 2.584593 1.349322 1.203230
  H 5.207567 -0.020298 0.154759
  H 4.776085 2.298188 2.114387
  H 7.310083 0.914544 1.012296
  H 6.876078 3.226645 2.970043
  H 9.394666 1.820417 1.848079
  H 9.232427 2.420721 3.513455
  H 9.273132 3.563604 2.172291
 20
 15.163387
  C 1.032376 0.127994 0.145138
  C 2.468366 -0.185245 -0.091997
  C 3.245629 0.622799 0.633055
  C 4.670302 0.680181 0.739692
  C 5.329166 1.570764 1.502651
  C 6.757384 1.631504 1.607475
  C 7.412058 2.513830 2.364318
  C 8.891982 2.590172 2.484173
  H 0.366572 -0.008048 -0.697948
  H 1.154809 1.177278 0.481318
  H 0.648624 -0.458423 0.991245
  H 2.797193 -0.910562 -0.817075
  H 2.557609 1.323487 1.150375
  H 5.228863 -0.050922 0.158704
  H 4.763490 2.297103 2.083362
  H 7.319099 0.901732 1.023597
  H 6.853317 3.242528 2.947609
  H 9.376028 1.829991 1.872095
  H 9.194635 2.451196 3.521960
  H 9.245710 3.570894 2.170789
 20
 23.997175
  C 1.041832 0.149972 0.167058
  C 2.462876 -0.205415 -0.095025
  C 3.253543 0.604055 0.613854
  C 4.675306 0.664895 0.729841
  C 5.325738 1.564600 1.489561
  C 6.754158 1.630802 1.605742
  C 7.401559 2.522821 2.360785
  C 8.882493 2.605393 2.491871
  H 0.372928 0.140575 -0.683594
  H 1.275884 1.162316 0.603782
  H 0.620807 -0.484883 0.950040
  H 2.768833 -0.951393 -0.807602
  H 2.523906 1.299497 1.112462
  H 5.239664 -0.068279 0.161625
  H 4.755359 2.291027 2.056880
  H 7.320492 0.900458 1.034958
  H 6.837705 3.252386 2.931316
  H 9.373492 1.841974 1.890792
  H 9.177805 2.476489 3.534194
  H 9.235993 3.585292 2.172465
 20
 34.462714
  C 1.046706 0.167671 0.181813
  C 2.456098 -0.220490 -0.089991
  C 3.261389 0.591894 0.602430
  C 4.682887 0.655742 0.723882
  C 5.325747 1.560898 1.482413
  C 6.756204 1.633037 1.604959
  C 7.396442 2.530303 2.359121
  C 8.874979 2.618668 2.496424
  H 0.396426 0.269205 -0.680793
  H 1.367686 1.142100 0.701168
  H 0.576314 -0.502115 0.901007
  H 2.742701 -0.992017 -0.778399
  H 2.483010 1.278201 1.090524
  H 5.253397 -0.077339 0.161482
  H 4.749547 2.287663 2.044059
  H 7.327628 0.903343 1.040406
  H 6.827914 3.259189 2.923337
  H 9.371262 1.855225 1.901215
  H 9.165843 2.495009 3.540359
  H 9.226292 3.598982 2.174399
 20
 47.012714
  C 1.055111 0.175260 0.195632
  C 2.452825 -0.218861 -0.083649
  C 3.268169 0.592537 0.602070
  C 4.685635 0.652986 0.722971
  C 5.328702 1.564274 1.483208
  C 6.749561 1.635127 1.605794
  C 7.389635 2.536765 2.360666
  C 8.867113 2.624701 2.499015
  H 0.414160 0.328635 -0.672483
  H 1.440829 1.136391 0.752357
  H 0.560049 -0.503011 0.878234
  H 2.728026 -1.007184 -0.767789
  H 2.439534 1.268572 1.075011
  H 5.261963 -0.086024 0.159348
  H 4.752774 2.292328 2.042007
  H 7.321856 0.903963 1.043839
  H 6.818525 3.269713 2.924529
  H 9.365179 1.859785 1.906187
  H 9.156250 2.503266 3.543290
  H 9.218932 3.604961 2.174299
 20
 58.993070
  C 1.042984 0.169360 0.190485
  C 2.444977 -0.218333 -0.078425
  C 3.267199 0.592949 0.601231
  C 4.688770 0.654687 0.726258
  C 5.328198 1.565440 1.485401
  C 6.761500 1.641037 1.609437
  C 7.398329 2.542673 2.362809
  C 8.873657 2.632303 2.503096
  H 0.419982 0.351478 -0.681921
  H 1.466107 1.149565 0.792098
  H 0.530546 -0.519341 0.849412
  H 2.717249 -1.011069 -0.746622
  H 2.379933 1.277158 1.078589
  H 5.268086 -0.081065 0.164154
  H 4.749754 2.292758 2.042167
  H 7.336633 0.910769 1.048628
  H 6.826601 3.273605 2.924207
  H 9.373837 1.866735 1.910977
  H 9.162131 2.512067 3.549473
  H 9.224270 3.612087 2.178116
 20
 68.478786
  C 1.040504 0.170689 0.189271
  C 2.446600 -0.218055 -0.064522
  C 3.274131 0.595951 0.599097
  C 4.691293 0.663627 0.720662
  C 5.329201 1.573182 1.480515
  C 6.754983 1.646218 1.608889
  C 7.390634 2.545049 2.364448
  C 8.872849 2.637025 2.508327
  H 0.429715 0.376885 -0.688460
  H 1.494910 1.160809 0.827114
  H 0.515697 -0.520580 0.841985
  H 2.721128 -1.023622 -0.722308
  H 2.346133 1.282962 1.085771
  H 5.272200 -0.072886 0.161986
  H 4.749283 2.299702 2.040573
  H 7.332875 0.912889 1.044255
  H 6.823090 3.267193 2.920277
  H 9.373923 1.873768 1.915528
  H 9.161144 2.515325 3.556902
  H 9.222145 3.613755 2.187616
 20
 77.983993
  C 1.027916 0.158514 0.181146
  C 2.439763 -0.215243 -0.050573
  C 3.278693 0.603202 0.595765
  C 4.695664 0.674672 0.713451
  C 5.334115 1.584517 1.473564
  C 6.764065 1.650894 1.611672
  C 7.399569 2.547529 2.370141
  C 8.874341 2.636190 2.512397
  H 0.437595 0.386361 -0.701892
  H 1.499058 1.177422 0.876530
  H 0.492183 -0.542099 0.812542
  H 2.718874 -1.034767 -0.688949
  H 2.305840 1.307957 1.098689
  H 5.277540 -0.064500 0.160471
  H 4.757396 2.305458 2.031054
  H 7.337085 0.923026 1.053184
  H 6.822493 3.283970 2.936650
  H 9.373798 1.872208 1.917919
  H 9.160773 2.512243 3.557818
  H 9.226732 3.617499 2.191808
 20
 88.223363
  C 1.016255 0.132098 0.168191
  C 2.436744 -0.204129 -0.030322
  C 3.284830 0.610863 0.596408
  C 4.699038 0.686945 0.708727
  C 5.337802 1.596944 1.467696
  C 6.764881 1.654470 1.614912
  C 7.400943 2.548708 2.375280
  C 8.878806 2.638759 2.517919
  H 0.447078 0.372991 -0.725773
  H 1.486230 1.217963 0.928080
  H 0.471885 -0.575503 0.785088
  H 2.726791 -1.031246 -0.656364
  H 2.253215 1.357539 1.125868
  H 5.283793 -0.057212 0.160129
  H 4.760647 2.318573 2.027073
  H 7.339619 0.921916 1.055579
  H 6.830979 3.275846 2.934375
  H 9.379203 1.875010 1.921516
  H 9.166716 2.513074 3.567023
  H 9.230340 3.619656 2.199358
 20
 98.392966
  C 1.005096 0.094242 0.145998
  C 2.432425 -0.180087 -0.018612
  C 3.292203 0.616312 0.600833
  C 4.703335 0.688743 0.717957
  C 5.344492 1.599988 1.474853
  C 6.769677 1.653079 1.622204
  C 7.409035 2.548749 2.380637
  C 8.887307 2.638134 2.519603
  H 0.450719 0.323969 -0.755459
  H 1.448986 1.286471 0.971441
  H 0.469934 -0.623465 0.757520
  H 2.734852 -1.006006 -0.640161
  H 2.182422 1.432999 1.161303
  H 5.284883 -0.048573 0.174730
  H 4.763675 2.332499 2.036749
  H 7.341133 0.918497 1.066077
  H 6.840111 3.278479 2.940570
  H 9.383448 1.876122 1.926270
  H 9.174388 2.514357 3.559622
  H 9.241711 3.622511 2.198061
 20
 107.202382
  C 0.986330 0.053623 0.117189
  C 2.425346 -0.167082 0.007207
  C 3.299512 0.623376 0.607840
  C 4.708563 0.697634 0.721195
  C 5.350556 1.608714 1.476367
  C 6.777810 1.661634 1.624255
  C 7.416844 2.555974 2.381237
  C 8.896373 2.640701 2.525812
  H 0.458564 0.277033 -0.802735
  H 1.394684 1.364850 1.029308
  H 0.445999 -0.667034 0.721686
  H 2.741977 -0.993396 -0.610938
  H 2.101648 1.515409 1.220520
  H 5.295267 -0.046367 0.180052
  H 4.773962 2.336121 2.033935
  H 7.349293 0.926129 1.069186
  H 6.847260 3.289915 2.938159
  H 9.393303 1.874437 1.933844
  H 9.184333 2.519475 3.572543
  H 9.250037 3.618784 2.203216
