 22
 0.000000
  H 1.547433 0.159048 0.450076
  C 2.628895 0.138539 0.398462
  C 3.350520 0.612015 1.574382
  C 2.457756 1.072350 2.719117
  C 3.277362 1.552663 3.912172
  C 3.195577 -0.329188 -0.764641
  C 4.583479 -0.422324 -0.997142
  C 5.158441 -0.888363 -2.160647
  C 4.482152 -1.366586 -3.358274
  H 3.396406 -1.342105 -3.301041
  H 6.242035 -0.904607 -2.198810
  H 4.025540 1.428078 1.285373
  H 4.026269 -0.176246 1.930956
  H 1.811915 0.250419 3.035743
  H 1.811495 1.884157 2.378417
  H 3.910766 0.756308 4.296930
  H 2.621401 1.876236 4.716840
  H 3.910257 2.393988 3.637945
  H 2.523514 -0.645619 -1.550980
  H 5.250122 -0.105972 -0.207142
  H 4.821873 -2.381972 -3.582356
  H 4.824111 -0.786702 -4.220531
 22
 0.127834
  H 1.545215 0.101680 0.465333
  C 2.627577 0.106566 0.407650
  C 3.345773 0.626676 1.569785
  C 2.455500 1.066099 2.723606
  C 3.275908 1.592778 3.895496
  C 3.191962 -0.376617 -0.749560
  C 4.572928 -0.522669 -0.964347
  C 5.152592 -0.926212 -2.147551
  C 4.481955 -1.307675 -3.375960
  H 3.405103 -1.259188 -3.331480
  H 6.235800 -0.962108 -2.177325
  H 3.989183 1.463187 1.265292
  H 4.061235 -0.129878 1.923268
  H 1.847436 0.226089 3.060069
  H 1.772864 1.846324 2.386672
  H 3.948469 0.827253 4.276744
  H 2.620415 1.898825 4.710130
  H 3.867782 2.456283 3.600730
  H 2.517649 -0.646065 -1.548319
  H 5.234700 -0.302743 -0.136561
  H 4.795164 -2.314969 -3.655427
  H 4.849209 -0.684809 -4.192384
 22
 0.611900
  H 1.546616 -0.020739 0.521664
  C 2.625153 0.024219 0.438929
  C 3.338051 0.619285 1.567341
  C 2.447515 1.053904 2.727443
  C 3.271136 1.668569 3.854813
  C 3.189795 -0.482448 -0.708995
  C 4.565710 -0.676476 -0.915393
  C 5.149687 -0.979146 -2.124580
  C 4.483678 -1.178268 -3.400982
  H 3.405619 -1.056561 -3.368248
  H 6.230015 -1.065231 -2.140664
  H 3.935288 1.478059 1.226318
  H 4.096963 -0.091269 1.927364
  H 1.895723 0.195591 3.110906
  H 1.729311 1.796296 2.375359
  H 3.994013 0.955905 4.243736
  H 2.626282 1.976119 4.672641
  H 3.809817 2.544297 3.506958
  H 2.496850 -0.715381 -1.506130
  H 5.216730 -0.567155 -0.060155
  H 4.726135 -2.181479 -3.771775
  H 4.925252 -0.511048 -4.151271
 22
 1.550264
  H 1.563352 -0.073695 0.538208
  C 2.634090 -0.003392 0.456041
  C 3.335271 0.620253 1.573735
  C 2.441720 1.066149 2.722774
  C 3.256755 1.684591 3.854354
  C 3.197159 -0.517125 -0.689105
  C 4.571688 -0.699499 -0.912886
  C 5.146107 -0.978902 -2.130002
  C 4.468661 -1.153134 -3.408451
  H 3.391187 -1.039774 -3.362072
  H 6.227808 -1.060148 -2.156509
  H 3.938768 1.468077 1.221807
  H 4.099450 -0.087500 1.947685
  H 1.885620 0.208197 3.105484
  H 1.725339 1.812448 2.356017
  H 3.973494 0.970059 4.259299
  H 2.601743 2.000041 4.664136
  H 3.804936 2.559841 3.507830
  H 2.496626 -0.758574 -1.484159
  H 5.224502 -0.608973 -0.061752
  H 4.712455 -2.142874 -3.807374
  H 4.894452 -0.466809 -4.139932
 22
 1.750738
  H 1.553538 -0.161403 0.578790
  C 2.632327 -0.065769 0.486018
  C 3.336300 0.594432 1.581094
  C 2.441931 1.063391 2.725623
  C 3.249673 1.726280 3.829768
  C 3.190200 -0.573959 -0.668550
  C 4.563774 -0.765890 -0.895768
  C 5.138854 -0.979749 -2.126196
  C 4.462629 -1.094715 -3.411172
  H 3.388659 -0.993427 -3.360745
  H 6.216539 -1.047693 -2.156490
  H 3.901960 1.445971 1.193119
  H 4.114398 -0.076440 1.960511
  H 1.898887 0.216866 3.138064
  H 1.702705 1.775767 2.347132
  H 3.983599 1.036733 4.242771
  H 2.597930 2.045553 4.637416
  H 3.778243 2.600900 3.455912
  H 2.482995 -0.774106 -1.458751
  H 5.219065 -0.726384 -0.033756
  H 4.719785 -2.061868 -3.858779
  H 4.879778 -0.368506 -4.109940
 22
 2.219035
  H 1.602964 -0.267970 0.645630
  C 2.672047 -0.126597 0.523503
  C 3.345509 0.598320 1.599510
  C 2.426313 1.073019 2.716998
  C 3.212524 1.746629 3.833497
  C 3.215572 -0.598664 -0.651293
  C 4.585069 -0.755190 -0.912971
  C 5.137201 -0.951048 -2.156185
  C 4.434725 -1.089471 -3.420843
  H 3.350648 -1.014205 -3.340702
  H 6.218662 -1.001783 -2.208633
  H 3.917057 1.439423 1.193300
  H 4.119694 -0.073954 2.021113
  H 1.873710 0.232051 3.127651
  H 1.693174 1.782088 2.318545
  H 3.936865 1.056859 4.272986
  H 2.541350 2.076677 4.626537
  H 3.752582 2.619067 3.462408
  H 2.492069 -0.768356 -1.442493
  H 5.249778 -0.738860 -0.058594
  H 4.706589 -2.048432 -3.873173
  H 4.815205 -0.352903 -4.130107
 22
 2.681540
  H 1.618414 -0.337528 0.683673
  C 2.685129 -0.191913 0.557857
  C 3.352066 0.543048 1.633313
  C 2.417440 1.062036 2.718068
  C 3.188292 1.796387 3.808049
  C 3.226184 -0.643099 -0.627700
  C 4.595159 -0.777911 -0.911884
  C 5.135156 -0.948624 -2.165774
  C 4.413080 -1.035589 -3.426976
  H 3.339695 -0.955209 -3.329200
  H 6.217071 -1.000722 -2.239284
  H 3.938791 1.371174 1.220791
  H 4.106675 -0.130133 2.075333
  H 1.876334 0.224380 3.167293
  H 1.681023 1.738928 2.281522
  H 3.904666 1.138569 4.295007
  H 2.505004 2.170280 4.567871
  H 3.725717 2.652850 3.398490
  H 2.500422 -0.784707 -1.405300
  H 5.265542 -0.781855 -0.063014
  H 4.668967 -1.977511 -3.920607
  H 4.783743 -0.268655 -4.107348
 22
 3.135756
  H 1.649282 -0.409598 0.719521
  C 2.711819 -0.225413 0.583984
  C 3.356004 0.541293 1.645985
  C 2.403042 1.066035 2.714474
  C 3.158214 1.813964 3.811509
  C 3.246456 -0.665041 -0.607334
  C 4.612173 -0.790655 -0.915200
  C 5.129845 -0.936676 -2.178826
  C 4.389311 -1.014115 -3.430288
  H 3.317727 -0.922453 -3.318776
  H 6.208842 -1.000425 -2.266196
  H 3.933842 1.361445 1.220361
  H 4.112855 -0.111845 2.118312
  H 1.849593 0.240652 3.158470
  H 1.679253 1.742551 2.259661
  H 3.869613 1.160326 4.312504
  H 2.462037 2.191283 4.561728
  H 3.702139 2.664979 3.400202
  H 2.517040 -0.784901 -1.397667
  H 5.293469 -0.812151 -0.080494
  H 4.626908 -1.963334 -3.921595
  H 4.758385 -0.254870 -4.118949
 22
 3.840658
  H 1.722492 -0.584622 0.803082
  C 2.764093 -0.320305 0.640187
  C 3.366736 0.508574 1.678003
  C 2.390827 1.023476 2.729743
  C 3.110819 1.828540 3.806875
  C 3.282520 -0.697559 -0.580195
  C 4.639677 -0.745918 -0.937335
  C 5.117955 -0.865777 -2.219517
  C 4.341353 -0.960428 -3.450155
  H 3.268893 -0.903916 -3.309107
  H 6.193452 -0.899687 -2.342263
  H 3.920570 1.338912 1.232178
  H 4.152092 -0.094079 2.170062
  H 1.867765 0.184902 3.196272
  H 1.643621 1.660452 2.252748
  H 3.847359 1.217615 4.324255
  H 2.400051 2.193600 4.546400
  H 3.617382 2.690664 3.376483
  H 2.544155 -0.810203 -1.359544
  H 5.356381 -0.734165 -0.127168
  H 4.590427 -1.900786 -3.946456
  H 4.668493 -0.190068 -4.150003
 22
 6.181390
  H 1.794494 -0.735095 0.883622
  C 2.799163 -0.374971 0.678820
  C 3.375385 0.497401 1.698189
  C 2.377692 1.026906 2.718387
  C 3.069717 1.894067 3.764033
  C 3.305534 -0.746128 -0.550402
  C 4.651025 -0.863709 -0.927368
  C 5.109140 -0.916523 -2.217982
  C 4.315678 -0.879582 -3.443833
  H 3.247041 -0.814173 -3.278809
  H 6.179013 -0.990806 -2.356301
  H 3.918946 1.323808 1.225487
  H 4.164165 -0.073410 2.216191
  H 1.872080 0.196703 3.215103
  H 1.618802 1.623181 2.210109
  H 3.825355 1.326209 4.301389
  H 2.349067 2.263300 4.488083
  H 3.553876 2.752759 3.300284
  H 2.533140 -0.740992 -1.318686
  H 5.371985 -0.941577 -0.123896
  H 4.538333 -1.769252 -4.034496
  H 4.646150 -0.044440 -4.064637
 22
 11.175518
  H 1.805567 -0.706239 0.895770
  C 2.810293 -0.357642 0.660380
  C 3.355486 0.596267 1.633271
  C 2.368034 1.015072 2.713565
  C 3.026868 1.951982 3.719805
  C 3.364318 -0.863375 -0.486316
  C 4.671096 -1.120854 -0.905486
  C 5.109204 -1.071996 -2.202632
  C 4.323138 -0.714105 -3.383814
  H 3.278803 -0.514181 -3.173216
  H 6.153283 -1.258544 -2.378684
  H 3.743487 1.481097 1.114457
  H 4.234185 0.117855 2.091393
  H 1.997522 0.133720 3.238030
  H 1.514355 1.524979 2.257441
  H 3.851490 1.458315 4.229445
  H 2.310659 2.262269 4.470664
  H 3.409091 2.846625 3.229047
  H 2.518370 -0.791598 -1.184456
  H 5.364006 -1.436734 -0.137265
  H 4.397719 -1.517733 -4.119953
  H 4.772928 0.150987 -3.874781
 22
 18.597701
  H 1.864671 -0.686075 0.932278
  C 2.854423 -0.326406 0.648621
  C 3.358027 0.672465 1.607919
  C 2.356794 1.024231 2.701628
  C 2.974397 1.996726 3.701196
  C 3.409636 -0.911215 -0.455994
  C 4.670732 -1.262448 -0.927594
  C 5.087548 -1.176242 -2.229043
  C 4.326049 -0.620187 -3.349619
  H 3.319898 -0.319663 -3.082924
  H 6.106879 -1.463729 -2.447313
  H 3.655567 1.581336 1.075987
  H 4.276327 0.254131 2.044417
  H 2.054724 0.118766 3.231614
  H 1.467325 1.479628 2.260823
  H 3.831822 1.546221 4.203854
  H 2.252022 2.265635 4.457170
  H 3.302493 2.911528 3.207133
  H 2.517426 -0.728469 -1.079832
  H 5.326485 -1.723180 -0.200663
  H 4.288266 -1.354648 -4.153997
  H 4.861817 0.230933 -3.772324
 22
 27.791197
  H 1.845226 -0.636500 0.889971
  C 2.847243 -0.296196 0.636351
  C 3.368477 0.655194 1.650882
  C 2.322203 1.082269 2.674425
  C 2.936906 2.008916 3.718360
  C 3.481881 -0.841735 -0.444715
  C 4.712332 -1.220254 -0.956454
  C 5.098939 -1.147950 -2.269475
  C 4.288477 -0.641177 -3.381097
  H 3.310123 -0.289274 -3.072474
  H 6.091384 -1.491756 -2.522061
  H 3.792002 1.539174 1.167246
  H 4.205877 0.140157 2.139221
  H 1.916706 0.203509 3.178504
  H 1.501796 1.599705 2.174916
  H 3.730074 1.504946 4.264535
  H 2.182396 2.321435 4.436879
  H 3.349043 2.901666 3.253871
  H 2.556439 -0.550788 -0.978231
  H 5.391406 -1.658121 -0.233765
  H 4.175082 -1.426206 -4.131615
  H 4.820850 0.164228 -3.890093
