 16
 0.000000
  C -1.519957 -0.840377 0.887446
  C -0.888871 0.268227 0.044588
  H -1.212832 0.156132 -0.994713
  C -1.175236 1.635248 0.548398
  C -2.470543 2.075648 1.120637
  H -0.542145 2.432493 0.191741
  H -1.140307 -1.807086 0.565256
  H -2.602180 -0.848929 0.779549
  H -1.272799 -0.707005 1.937364
  H 0.197219 0.131555 0.056562
  H -3.017802 1.240243 1.547117
  H -3.103544 2.552075 0.360796
  H -2.302340 2.821676 1.899900
  O 2.391800 -0.307642 -0.333576
  H 2.817775 0.263928 0.308489
  H 3.024987 -0.485603 -1.031132
 16
 -0.383817
  C -1.570474 -0.846412 0.868215
  C -0.903547 0.248738 0.042688
  H -1.231204 0.131917 -1.005877
  C -1.171409 1.632715 0.502046
  C -2.431480 2.074872 1.141077
  H -0.506956 2.400598 0.145781
  H -1.215581 -1.821569 0.538893
  H -2.652227 -0.824063 0.755390
  H -1.325634 -0.730952 1.922113
  H 0.177928 0.085270 0.034152
  H -2.925244 1.259912 1.667874
  H -3.140707 2.468952 0.399761
  H -2.240701 2.884734 1.848555
  O 2.424240 -0.247854 -0.310882
  H 2.837269 0.334417 0.329911
  H 3.073614 -0.429090 -0.993237
 16
 -0.312564
  C -1.597519 -0.869302 0.871167
  C -0.902439 0.209019 0.042466
  H -1.223867 0.097407 -1.006673
  C -1.140337 1.599973 0.499269
  C -2.390305 2.071673 1.136363
  H -0.472526 2.356348 0.117141
  H -1.257985 -1.852541 0.553813
  H -2.677494 -0.829227 0.747419
  H -1.361267 -0.749854 1.926035
  H 0.176223 0.026435 0.047421
  H -2.908583 1.267612 1.651435
  H -3.082925 2.495169 0.395636
  H -2.179379 2.867608 1.853368
  O 2.381176 -0.174056 -0.305109
  H 2.782443 0.412341 0.339613
  H 3.036804 -0.349359 -0.983016
 16
 -0.219694
  C -1.618296 -0.885721 0.844361
  C -0.904941 0.177236 0.012834
  H -1.218452 0.063009 -1.038648
  C -1.119890 1.575293 0.456981
  C -2.328244 2.059315 1.161129
  H -0.467223 2.322394 0.033092
  H -1.289568 -1.875514 0.535972
  H -2.697066 -0.832545 0.713453
  H -1.387421 -0.762915 1.900058
  H 0.171013 -0.024863 0.018801
  H -2.814708 1.264578 1.719977
  H -3.065288 2.470776 0.457250
  H -2.074180 2.866960 1.850582
  O 2.320095 -0.090637 -0.265347
  H 2.684442 0.506425 0.391449
  H 3.007183 -0.261614 -0.912806
 16
 -0.063340
  C -1.616365 -0.900412 0.807795
  C -0.912169 0.147638 -0.047496
  H -1.208374 -0.002044 -1.099425
  C -1.150400 1.557236 0.342729
  C -2.258705 2.029605 1.201345
  H -0.585764 2.306240 -0.189870
  H -1.276913 -1.894181 0.524787
  H -2.695411 -0.859036 0.673399
  H -1.389519 -0.752534 1.861240
  H 0.166885 -0.045321 -0.032102
  H -2.622639 1.245977 1.860026
  H -3.110699 2.379673 0.601476
  H -1.939895 2.878630 1.809662
  O 2.263016 0.005003 -0.182359
  H 2.541914 0.637309 0.483365
  H 3.020164 -0.174767 -0.744030
 16
 -0.183048
  C -1.639877 -0.915826 0.713880
  C -0.951204 0.140700 -0.140002
  H -1.192299 -0.046429 -1.197761
  C -1.281350 1.549166 0.183928
  C -2.166924 2.003379 1.276887
  H -0.904756 2.300565 -0.493500
  H -1.277985 -1.903551 0.438039
  H -2.718086 -0.891331 0.569474
  H -1.427206 -0.765658 1.766112
  H 0.135703 -0.005010 -0.066286
  H -2.285108 1.245826 2.046381
  H -3.170839 2.252556 0.904136
  H -1.775724 2.913582 1.737388
  O 2.307670 0.061272 -0.040870
  H 2.466885 0.733194 0.625937
  H 3.149065 -0.132622 -0.459920
 16
 1.397449
  C -1.613088 -0.954786 0.610879
  C -0.960456 0.152743 -0.212909
  H -1.035300 -0.072266 -1.282753
  C -1.376848 1.542661 0.067752
  C -2.012840 2.017141 1.315103
  H -1.164471 2.279277 -0.687370
  H -1.113417 -1.903514 0.412274
  H -2.668466 -1.061389 0.355317
  H -1.540395 -0.749044 1.677794
  H 0.128683 0.070308 -0.040940
  H -1.926197 1.287361 2.120788
  H -3.082626 2.216873 1.167112
  H -1.565270 2.960611 1.645127
  O 2.081598 0.091786 0.105532
  H 2.190252 0.748451 0.798906
  H 2.967693 -0.110740 -0.210866
 16
 8.705954
  C -1.534682 -0.954887 0.637200
  C -0.984250 0.169231 -0.233331
  H -0.938710 -0.087940 -1.298075
  C -1.377250 1.563934 0.041965
  C -2.027742 2.049594 1.282748
  H -1.160051 2.301857 -0.714793
  H -0.976425 -1.869438 0.448172
  H -2.591668 -1.137669 0.442127
  H -1.417443 -0.719027 1.690733
  H 0.123638 0.133846 -0.038756
  H -1.987217 1.312531 2.078510
  H -3.083767 2.291861 1.107033
  H -1.553791 2.969830 1.634865
  O 1.814819 0.032964 0.107262
  H 1.980392 0.636428 0.829952
  H 2.720518 -0.194853 -0.183163
 16
 34.020546
  C -1.480074 -0.985088 0.595338
  C -0.990046 0.183379 -0.244744
  H -0.914208 -0.077540 -1.304908
  C -1.338815 1.552949 0.032306
  C -1.914751 2.067504 1.303543
  H -1.108803 2.294450 -0.717254
  H -0.903686 -1.876708 0.374143
  H -2.526074 -1.201562 0.365176
  H -1.414789 -0.773201 1.659719
  H 0.216757 0.025588 -0.157620
  H -1.804772 1.351628 2.115142
  H -2.991409 2.244159 1.183857
  H -1.457538 3.013991 1.595162
  O 1.592451 0.070253 0.166737
  H 1.704358 0.716487 0.876956
  H 2.701711 -0.125530 -0.007952
 16
 53.266467
  C -1.508982 -0.945305 0.604238
  C -1.025127 0.218488 -0.227778
  H -0.890096 -0.026401 -1.278685
  C -1.361675 1.524719 0.046356
  C -1.961714 2.031377 1.310051
  H -1.114080 2.280082 -0.687760
  H -0.910180 -1.829391 0.399949
  H -2.546306 -1.174805 0.358333
  H -1.453586 -0.732997 1.669139
  H 0.377945 0.137630 0.005388
  H -1.904884 1.300863 2.112265
  H -3.015722 2.270252 1.148652
  H -1.470417 2.949898 1.632782
  O 1.527082 0.057990 0.134090
  H 1.755624 0.672713 0.838313
  H 2.944678 -0.289240 -0.231504
 16
 46.989948
  C -1.561741 -0.942599 0.616310
  C -1.133680 0.234646 -0.214491
  H -0.982401 -0.013309 -1.259878
  C -1.428329 1.512091 0.055181
  C -2.006451 2.038277 1.322790
  H -1.180803 2.265201 -0.680297
  H -0.949228 -1.811943 0.385320
  H -2.599291 -1.189449 0.391941
  H -1.483552 -0.741529 1.682347
  H 0.537651 0.143837 0.002465
  H -1.981359 1.302733 2.120605
  H -3.044773 2.318579 1.151140
  H -1.476888 2.930865 1.650179
  O 1.520374 0.058476 0.141136
  H 1.757499 0.660841 0.845560
  H 3.276555 -0.346900 -0.310261
 16
 43.118129
  C -1.603380 -0.956495 0.616448
  C -1.217703 0.209329 -0.244281
  H -1.021766 -0.051297 -1.278575
  C -1.453193 1.492102 0.033893
  C -1.949037 2.046087 1.327472
  H -1.208408 2.236361 -0.713327
  H -0.954775 -1.806652 0.414482
  H -2.628343 -1.252569 0.392134
  H -1.542508 -0.720727 1.676147
  H 0.601940 0.148181 -0.016183
  H -1.856103 1.333351 2.141513
  H -3.002888 2.306653 1.225977
  H -1.411302 2.955965 1.587835
  O 1.561292 0.073995 0.162227
  H 1.775686 0.727678 0.830367
  H 3.442778 -0.329870 -0.317039
 16
 40.984981
  C -1.716910 -1.001858 0.504059
  C -1.265731 0.204577 -0.259273
  H -0.951211 -0.001256 -1.276993
  C -1.405648 1.471653 0.114059
  C -1.932408 1.966180 1.421597
  H -1.082057 2.251717 -0.565215
  H -1.083168 -1.854742 0.269955
  H -2.738590 -1.254627 0.219617
  H -1.695345 -0.837930 1.578499
  H 0.695617 0.230103 -0.024175
  H -1.972910 1.180368 2.170409
  H -2.941674 2.354521 1.283066
  H -1.315775 2.782612 1.796144
  O 1.640626 0.187261 0.198014
  H 1.796248 0.836620 0.889906
  H 3.607743 -0.136030 -0.468007
 16
 40.871924
  C -1.843690 -1.018180 0.648803
  C -1.273189 0.099935 -0.167100
  H -0.903885 -0.200732 -1.142923
  C -1.317255 1.417811 0.133521
  C -1.922752 2.041797 1.349656
  H -0.897922 2.127244 -0.573494
  H -1.222374 -1.907200 0.555683
  H -2.842049 -1.268052 0.286560
  H -1.923596 -0.754991 1.700163
  H 0.761240 0.102896 0.054149
  H -2.036724 1.331241 2.163296
  H -2.910828 2.425737 1.097899
  H -1.318685 2.880847 1.692415
  O 1.712836 0.205394 0.200432
  H 1.834980 1.048469 0.644716
  H 3.742700 -0.153049 -0.792115
 16
 39.514836
  C -1.821348 -1.012699 0.635400
  C -1.388895 0.123360 -0.232386
  H -1.048455 -0.171333 -1.218743
  C -1.410948 1.415296 0.069624
  C -1.883179 2.032360 1.345470
  H -1.101755 2.132208 -0.681946
  H -1.131811 -1.848054 0.527718
  H -2.809068 -1.355825 0.326293
  H -1.869383 -0.732246 1.683329
  H 0.835387 0.232581 -0.046306
  H -1.928842 1.311504 2.156614
  H -2.883124 2.445301 1.206647
  H -1.227202 2.851301 1.636001
  O 1.713392 0.145322 0.346438
  H 1.913895 0.988073 0.758165
  H 3.680333 -0.178539 -0.660501
