 24
 0.000000
  C 0.805828 0.047653 0.338695
  C 2.290679 0.060578 0.105817
  C 3.225894 -0.006904 1.307787
  C 2.594495 -0.091974 2.691836
  H 3.379703 -0.133840 3.439643
  C 2.872486 0.126141 -1.087863
  C 2.352099 0.204208 -2.488966
  C 0.850491 0.220313 -2.749694
  C 0.573236 0.302573 -4.247691
  H 3.957908 0.125478 -1.091938
  H 0.567216 -0.001957 1.394853
  H 0.344637 -0.813936 -0.137347
  H 0.343592 0.950916 -0.055752
  H 3.870378 0.877073 1.284476
  H 3.877426 -0.876591 1.180050
  H 1.984360 -0.986111 2.793750
  H 1.977987 0.779115 2.899868
  H 2.781435 -0.643176 -3.036194
  H 2.783479 1.105453 -2.940017
  H 0.391768 1.081651 -2.262413
  H 0.389685 -0.687774 -2.358943
  H 1.003672 1.208591 -4.669488
  H -0.497850 0.314206 -4.436086
  H 1.001484 -0.553100 -4.765819
 24
 6.163223
  C 0.824748 0.097542 0.357968
  C 2.265056 0.060438 0.116185
  C 3.210288 0.003292 1.301072
  C 2.583807 -0.103705 2.682461
  H 3.373149 -0.137010 3.429360
  C 2.853382 0.112924 -1.068834
  C 2.340311 0.188463 -2.480883
  C 0.841023 0.228803 -2.746604
  C 0.567698 0.304958 -4.244623
  H 3.938375 0.091423 -1.060501
  H 0.539308 0.012439 1.390415
  H 0.621455 -0.807113 -0.196792
  H 0.329520 0.947867 -0.063230
  H 3.837124 0.898816 1.279396
  H 3.878161 -0.850638 1.162050
  H 1.993283 -1.010933 2.780235
  H 1.955550 0.755612 2.900784
  H 2.758439 -0.668328 -3.018589
  H 2.788615 1.077336 -2.935026
  H 0.400353 1.100222 -2.264255
  H 0.362758 -0.666050 -2.349339
  H 1.017404 1.199242 -4.671355
  H -0.502150 0.335300 -4.436348
  H 0.982278 -0.562370 -4.754708
 24
 17.898170
  C 0.809995 0.095784 0.377933
  C 2.248750 0.069949 0.140361
  C 3.219078 0.035842 1.319529
  C 2.593093 -0.113981 2.702417
  H 3.378383 -0.129132 3.453746
  C 2.845092 0.097445 -1.071660
  C 2.330538 0.161075 -2.484643
  C 0.826334 0.263659 -2.760742
  C 0.563716 0.317195 -4.262902
  H 3.930225 0.034403 -1.066153
  H 0.492809 -0.050904 1.397229
  H 0.854881 -0.794812 -0.203688
  H 0.264850 0.910999 -0.089653
  H 3.805795 0.959631 1.306094
  H 3.922844 -0.787583 1.167679
  H 2.035887 -1.042214 2.783752
  H 1.933932 0.717608 2.927894
  H 2.714562 -0.729600 -3.006083
  H 2.818837 1.025261 -2.960471
  H 0.424938 1.165811 -2.303909
  H 0.301266 -0.594627 -2.346113
  H 1.058009 1.178083 -4.707920
  H -0.502465 0.393837 -4.461870
  H 0.939109 -0.580319 -4.749591
 24
 32.123030
  C 0.804104 0.118903 0.387969
  C 2.244323 0.066469 0.137891
  C 3.209898 0.039533 1.322064
  C 2.584407 -0.129344 2.708635
  H 3.372945 -0.135262 3.461456
  C 2.855979 0.087005 -1.072794
  C 2.339794 0.148643 -2.495414
  C 0.824884 0.273542 -2.765497
  C 0.549107 0.320803 -4.268133
  H 3.947518 0.027114 -1.053585
  H 0.483197 -0.022248 1.396145
  H 1.034141 -0.777195 -0.169428
  H 0.236516 0.880848 -0.125251
  H 3.774602 0.974701 1.312605
  H 3.929222 -0.766630 1.168358
  H 2.043684 -1.065476 2.785600
  H 1.913329 0.686718 2.938491
  H 2.708831 -0.750510 -3.012984
  H 2.838853 1.002179 -2.980255
  H 0.444062 1.182920 -2.314576
  H 0.289966 -0.568769 -2.341727
  H 1.054205 1.170455 -4.724124
  H -0.515582 0.413741 -4.458568
  H 0.905046 -0.586357 -4.751585
 24
 44.904741
  C 0.776707 0.148130 0.396146
  C 2.227209 0.070316 0.118185
  C 3.193772 0.035497 1.305013
  C 2.583176 -0.145830 2.679015
  H 3.368977 -0.154432 3.415095
  C 2.854612 0.090294 -1.092075
  C 2.348253 0.147470 -2.490669
  C 0.845579 0.278850 -2.749744
  C 0.562941 0.314428 -4.246756
  H 3.939488 0.034728 -1.067164
  H 0.468918 0.022093 1.421904
  H 1.151785 -0.751515 -0.114168
  H 0.182089 0.851376 -0.156142
  H 3.750057 0.973124 1.299268
  H 3.920456 -0.763505 1.146414
  H 2.048525 -1.082339 2.751428
  H 1.912092 0.664569 2.921381
  H 2.710670 -0.755135 -3.003573
  H 2.850571 0.991582 -2.982691
  H 0.470329 1.204954 -2.302401
  H 0.301389 -0.564231 -2.311116
  H 1.072088 1.156140 -4.712191
  H -0.505796 0.413841 -4.431788
  H 0.910531 -0.600737 -4.723972
 24
 53.964724
  C 0.782213 0.163889 0.395614
  C 2.231694 0.067557 0.114284
  C 3.188708 0.036900 1.309989
  C 2.573819 -0.161266 2.684732
  H 3.367102 -0.170715 3.430296
  C 2.866849 0.090459 -1.094045
  C 2.353048 0.149141 -2.511646
  C 0.856709 0.292341 -2.752488
  C 0.552080 0.315872 -4.245149
  H 3.949323 0.025366 -1.063429
  H 0.479901 0.094678 1.414127
  H 1.278327 -0.758342 -0.032273
  H 0.154844 0.776684 -0.231432
  H 3.728745 0.980837 1.310856
  H 3.923302 -0.750981 1.150579
  H 2.042916 -1.107349 2.748800
  H 1.894039 0.645772 2.935736
  H 2.696751 -0.758199 -3.023122
  H 2.855311 0.983396 -3.012193
  H 0.502255 1.218919 -2.310951
  H 0.318169 -0.536413 -2.298383
  H 1.061884 1.147858 -4.726293
  H -0.516314 0.423369 -4.415775
  H 0.883552 -0.605993 -4.717843
 24
 59.932368
  C 0.780364 0.202276 0.406544
  C 2.230389 0.075786 0.116967
  C 3.188222 0.035463 1.309523
  C 2.573058 -0.188563 2.688960
  H 3.366755 -0.220351 3.429510
  C 2.872866 0.101310 -1.108605
  C 2.361356 0.153938 -2.518495
  C 0.861556 0.300278 -2.756738
  C 0.550347 0.307789 -4.255623
  H 3.948323 0.040310 -1.075328
  H 0.468557 0.208238 1.438521
  H 1.368273 -0.754966 0.067151
  H 0.130120 0.685664 -0.286454
  H 3.728881 0.988217 1.322171
  H 3.929812 -0.749801 1.135335
  H 2.033657 -1.133198 2.735133
  H 1.898861 0.621521 2.963141
  H 2.700265 -0.759853 -3.028026
  H 2.867108 0.986956 -3.026516
  H 0.509885 1.240490 -2.320883
  H 0.321082 -0.527400 -2.288263
  H 1.061674 1.133900 -4.748741
  H -0.520092 0.416857 -4.424982
  H 0.878029 -0.621909 -4.720263
 24
 64.931761
  C 0.774480 0.225480 0.436371
  C 2.222227 0.068582 0.124710
  C 3.189227 0.042815 1.309885
  C 2.584863 -0.202810 2.688101
  H 3.384314 -0.245970 3.424324
  C 2.860948 0.099794 -1.107773
  C 2.353893 0.150465 -2.521038
  C 0.861488 0.311324 -2.772709
  C 0.562803 0.310494 -4.274539
  H 3.941863 0.027312 -1.073469
  H 0.473346 0.285886 1.459042
  H 1.439234 -0.764509 0.156024
  H 0.086971 0.589413 -0.295593
  H 3.713167 1.003077 1.326368
  H 3.940587 -0.729448 1.124710
  H 2.046427 -1.146458 2.722740
  H 1.914572 0.599211 2.979116
  H 2.683738 -0.766961 -3.026360
  H 2.869899 0.973529 -3.026918
  H 0.516943 1.258939 -2.346905
  H 0.309039 -0.509463 -2.304028
  H 1.085240 1.124692 -4.768022
  H -0.501541 0.429090 -4.453707
  H 0.883661 -0.622913 -4.727862
 24
 69.235413
  C 0.781885 0.263531 0.430817
  C 2.223918 0.063690 0.125654
  C 3.189442 0.052264 1.313399
  C 2.583736 -0.220744 2.681693
  H 3.378704 -0.275700 3.416778
  C 2.872828 0.100248 -1.111679
  C 2.364736 0.143145 -2.523796
  C 0.866436 0.311522 -2.768717
  C 0.558951 0.308021 -4.266376
  H 3.949788 0.012857 -1.074689
  H 0.470746 0.341846 1.445859
  H 1.499263 -0.770049 0.181271
  H 0.087715 0.554050 -0.323646
  H 3.693942 1.021292 1.341723
  H 3.955676 -0.702068 1.123797
  H 2.046616 -1.168272 2.696286
  H 1.907113 0.576769 2.987900
  H 2.687774 -0.776713 -3.027958
  H 2.883740 0.961224 -3.034499
  H 0.530649 1.258141 -2.343382
  H 0.314657 -0.504285 -2.295920
  H 1.082353 1.118314 -4.765101
  H -0.506987 0.431301 -4.439820
  H 0.872806 -0.628526 -4.718984
 24
 73.154615
  C 0.778775 0.300331 0.444162
  C 2.214637 0.062198 0.127228
  C 3.188057 0.053549 1.305582
  C 2.589885 -0.234478 2.676611
  H 3.391552 -0.295858 3.410706
  C 2.857735 0.101719 -1.108888
  C 2.356595 0.139922 -2.517661
  C 0.867464 0.305704 -2.774464
  C 0.577839 0.300398 -4.263343
  H 3.935487 0.011955 -1.073218
  H 0.469390 0.369260 1.466463
  H 1.534278 -0.763723 0.188912
  H 0.080007 0.560474 -0.308696
  H 3.685055 1.029041 1.336821
  H 3.966058 -0.701075 1.102489
  H 2.056139 -1.177269 2.685104
  H 1.925065 0.544992 2.989160
  H 2.684222 -0.781003 -3.019752
  H 2.879291 0.957899 -3.028086
  H 0.527025 1.247578 -2.355658
  H 0.314758 -0.505663 -2.310121
  H 1.111079 1.119125 -4.760590
  H -0.495915 0.423322 -4.448571
  H 0.901452 -0.645927 -4.714972
 24
 74.887312
  C 0.791829 0.360195 0.436584
  C 2.213976 0.053672 0.139171
  C 3.189286 0.062072 1.321274
  C 2.599108 -0.255349 2.684830
  H 3.401533 -0.320358 3.415590
  C 2.877548 0.100006 -1.114148
  C 2.372580 0.131908 -2.526326
  C 0.872230 0.304703 -2.776674
  C 0.569100 0.296340 -4.271304
  H 3.950014 -0.002698 -1.069699
  H 0.455987 0.399565 1.446229
  H 1.575236 -0.800379 0.192044
  H 0.088345 0.563823 -0.335131
  H 3.661576 1.046901 1.362576
  H 3.981118 -0.666671 1.112874
  H 2.072808 -1.211049 2.676128
  H 1.915872 0.521535 3.015498
  H 2.693148 -0.791390 -3.024793
  H 2.896362 0.943792 -3.042043
  H 0.537539 1.253310 -2.355372
  H 0.317003 -0.508315 -2.303158
  H 1.096486 1.104516 -4.771861
  H -0.498075 0.422155 -4.447685
  H 0.882056 -0.644659 -4.720192
 24
 75.922166
  C 0.805714 0.431000 0.438192
  C 2.209273 0.052179 0.142445
  C 3.187443 0.068060 1.322020
  C 2.602861 -0.282483 2.682434
  H 3.405718 -0.353600 3.410477
  C 2.880315 0.104903 -1.116479
  C 2.375581 0.126523 -2.525776
  C 0.878086 0.300068 -2.775441
  C 0.574326 0.282211 -4.267703
  H 3.953187 -0.009075 -1.069219
  H 0.453428 0.419906 1.443567
  H 1.608989 -0.823082 0.178497
  H 0.095454 0.596338 -0.335980
  H 3.638271 1.061661 1.375173
  H 3.990747 -0.639560 1.102582
  H 2.089374 -1.239320 2.655417
  H 1.911058 0.479638 3.029011
  H 2.694188 -0.802214 -3.019656
  H 2.901608 0.934274 -3.049105
  H 0.545827 1.251053 -2.359216
  H 0.322468 -0.508676 -2.294758
  H 1.104276 1.088772 -4.775483
  H -0.491627 0.408298 -4.443530
  H 0.885419 -0.662722 -4.710579
 24
 75.914617
  C 0.824655 0.507832 0.444033
  C 2.203783 0.053068 0.148098
  C 3.185232 0.073610 1.326392
  C 2.606203 -0.316682 2.680282
  H 3.409411 -0.393184 3.407287
  C 2.884621 0.111750 -1.118943
  C 2.379471 0.121651 -2.526697
  C 0.883413 0.296030 -2.776580
  C 0.578282 0.262549 -4.267846
  H 3.956130 -0.013965 -1.068845
  H 0.457009 0.440397 1.442494
  H 1.646290 -0.853524 0.157741
  H 0.110527 0.650461 -0.332353
  H 3.610717 1.077129 1.396053
  H 4.002214 -0.609490 1.095071
  H 2.105951 -1.278613 2.630208
  H 1.903368 0.426636 3.043604
  H 2.695870 -0.811656 -3.012825
  H 2.908113 0.923462 -3.057977
  H 0.553634 1.251630 -2.370039
  H 0.326675 -0.506695 -2.286106
  H 1.107147 1.058995 -4.782055
  H -0.490501 0.390036 -4.444590
  H 0.888087 -0.689342 -4.702214
 24
 75.503536
  C 0.850199 0.590163 0.450935
  C 2.199632 0.059928 0.152672
  C 3.183338 0.072693 1.330292
  C 2.606734 -0.360562 2.674029
  H 3.406699 -0.445916 3.399129
  C 2.890316 0.125868 -1.120921
  C 2.383809 0.119376 -2.526766
  C 0.887735 0.286232 -2.775762
  C 0.579727 0.230050 -4.265443
  H 3.961499 -0.008147 -1.068280
  H 0.464929 0.470425 1.439434
  H 1.681372 -0.870392 0.129772
  H 0.135729 0.731088 -0.328225
  H 3.588589 1.081746 1.422186
  H 4.010920 -0.589774 1.085211
  H 2.115727 -1.332043 2.596352
  H 1.895245 0.361800 3.053596
  H 2.701841 -0.816547 -3.002810
  H 2.912049 0.917934 -3.069163
  H 0.556738 1.246775 -2.382723
  H 0.334118 -0.510524 -2.271084
  H 1.107345 1.023275 -4.795326
  H -0.488047 0.351357 -4.440830
  H 0.889121 -0.725536 -4.685198
