 26
 0.000000
  H 1.438914 0.160598 0.456099
  C 2.518010 0.146353 0.418043
  C 3.267310 0.618993 1.589826
  C 2.399661 1.085532 2.751065
  H 3.018117 1.418835 3.577200
  C 3.086979 -0.323442 -0.750613
  C 4.463626 -0.415564 -0.981670
  C 5.133263 -0.871064 -2.118020
  C 4.615548 -1.389136 -3.411063
  C 3.121951 -1.499907 -3.689500
  C 2.894643 -2.061383 -5.090979
  O 6.448471 -0.870623 -2.117066
  H 3.926973 1.439833 1.284352
  H 3.928853 -0.183120 1.937855
  H 1.761174 0.278348 3.103678
  H 1.759353 1.910625 2.446531
  H 2.408515 -0.635528 -1.525636
  H 5.100987 -0.088683 -0.168063
  H 5.070226 -2.378031 -3.543576
  H 5.071183 -0.766034 -4.189776
  H 2.650529 -0.518186 -3.633464
  H 2.649603 -2.170834 -2.971242
  H 3.333410 -1.414544 -5.846973
  H 1.829997 -2.142372 -5.294588
  H 3.332566 -3.051674 -5.190956
  H 6.854139 -0.540809 -1.292034
 26
 9.193239
  H 1.391910 0.173399 0.488489
  C 2.470921 0.150188 0.427877
  C 3.238894 0.619265 1.590241
  C 2.383088 1.088565 2.758439
  H 3.010694 1.420222 3.580090
  C 3.003428 -0.317905 -0.736359
  C 4.534405 -0.425479 -1.006146
  C 5.181050 -0.880346 -2.140945
  C 4.640941 -1.395168 -3.425936
  C 3.143184 -1.494822 -3.676929
  C 2.886536 -2.054521 -5.074189
  O 6.498083 -0.886275 -2.156047
  H 3.899410 1.436157 1.277274
  H 3.901565 -0.184980 1.930140
  H 1.745234 0.284101 3.117639
  H 1.743154 1.916071 2.460514
  H 2.322841 -0.627580 -1.505163
  H 5.170884 -0.100397 -0.196915
  H 5.087644 -2.386740 -3.566336
  H 5.088712 -0.775650 -4.212196
  H 2.680837 -0.509560 -3.611818
  H 2.679774 -2.162032 -2.949721
  H 3.316543 -1.410892 -5.837894
  H 1.817985 -2.127929 -5.259127
  H 3.315552 -3.047858 -5.181996
  H 6.918569 -0.559086 -1.337838
 26
 28.469292
  H 1.338794 0.190819 0.531553
  C 2.417418 0.157606 0.446128
  C 3.207881 0.623991 1.601882
  C 2.367035 1.096722 2.778841
  H 3.004458 1.425571 3.593601
  C 2.914425 -0.313582 -0.725742
  C 4.600304 -0.435475 -1.031034
  C 5.229595 -0.892370 -2.170841
  C 4.669591 -1.404511 -3.449024
  C 3.168213 -1.492783 -3.671786
  C 2.879595 -2.050319 -5.063743
  O 6.551981 -0.904138 -2.200735
  H 3.869215 1.436379 1.280433
  H 3.871434 -0.182921 1.932401
  H 1.729522 0.295134 3.145887
  H 1.727409 1.927601 2.488694
  H 2.239031 -0.624098 -1.496708
  H 5.226817 -0.108639 -0.217134
  H 5.108577 -2.398687 -3.597103
  H 5.109699 -0.788523 -4.242690
  H 2.715927 -0.503673 -3.596678
  H 2.714772 -2.155831 -2.934699
  H 3.299766 -1.410171 -5.835812
  H 1.807137 -2.115438 -5.228157
  H 3.298655 -3.046944 -5.179979
  H 6.985443 -0.579248 -1.388871
 26
 49.180356
  H 1.296022 0.212989 0.586324
  C 2.371600 0.161673 0.455713
  C 3.195646 0.619700 1.591233
  C 2.378483 1.097681 2.781786
  H 3.032855 1.422491 3.586720
  C 2.798199 -0.310522 -0.718839
  C 4.641054 -0.442516 -1.049753
  C 5.252958 -0.894562 -2.177049
  C 4.689297 -1.406690 -3.454434
  C 3.187313 -1.490451 -3.666237
  C 2.882177 -2.046787 -5.054493
  O 6.577048 -0.906549 -2.206838
  H 3.855853 1.426228 1.254145
  H 3.858242 -0.193951 1.906109
  H 1.742791 0.301021 3.161882
  H 1.740692 1.934082 2.504754
  H 2.156873 -0.627094 -1.504572
  H 5.218705 -0.107135 -0.214494
  H 5.128688 -2.399430 -3.610425
  H 5.129954 -0.797594 -4.253098
  H 2.738710 -0.499916 -3.588863
  H 2.737426 -2.152524 -2.926350
  H 3.297948 -1.408962 -5.830973
  H 1.808061 -2.108037 -5.209332
  H 3.296586 -3.044811 -5.175084
  H 7.012094 -0.581881 -1.394997
 26
 69.669436
  H 1.241462 0.227474 0.622173
  C 2.315267 0.166358 0.467356
  C 3.161910 0.620418 1.593180
  C 2.362825 1.102575 2.794015
  H 3.028516 1.423870 3.590413
  C 2.703116 -0.304870 -0.704706
  C 4.701235 -0.450281 -1.069385
  C 5.306775 -0.908300 -2.211409
  C 4.723119 -1.415159 -3.475486
  C 3.217885 -1.484400 -3.651220
  C 2.870545 -2.037564 -5.031509
  O 6.638739 -0.927131 -2.258281
  H 3.821854 1.422537 1.246624
  H 3.824068 -0.196658 1.898106
  H 1.727701 0.309275 3.182682
  H 1.725678 1.942648 2.525500
  H 2.072500 -0.626676 -1.503420
  H 5.263591 -0.109092 -0.219706
  H 5.152801 -2.411618 -3.639437
  H 5.154100 -0.809000 -4.282525
  H 2.783427 -0.488496 -3.560094
  H 2.782015 -2.140802 -2.897554
  H 3.272376 -1.404221 -5.819038
  H 1.792387 -2.087520 -5.158331
  H 3.270976 -3.040116 -5.163128
  H 7.085075 -0.605283 -1.453639
 26
 87.937831
  H 1.189266 0.243297 0.660649
  C 2.260677 0.171500 0.479857
  C 3.131426 0.621308 1.595731
  C 2.351211 1.108015 2.807504
  H 3.029206 1.425591 3.595173
  C 2.610872 -0.303705 -0.702013
  C 4.763864 -0.463416 -1.102131
  C 5.355937 -0.918431 -2.236744
  C 4.754783 -1.421855 -3.492247
  C 3.245180 -1.478925 -3.637291
  C 2.860876 -2.028364 -5.008360
  O 6.679641 -0.941004 -2.293150
  H 3.790191 1.419152 1.238988
  H 3.792003 -0.200053 1.890388
  H 1.716955 0.318322 3.205101
  H 1.715369 1.951932 2.547912
  H 1.999364 -0.628216 -1.507811
  H 5.306676 -0.119577 -0.245741
  H 5.176377 -2.420821 -3.663463
  H 5.177550 -0.818796 -4.306296
  H 2.823270 -0.478912 -3.534199
  H 2.822084 -2.130141 -2.872120
  H 3.249880 -1.398871 -5.805151
  H 1.779671 -2.068457 -5.110284
  H 3.248657 -3.034381 -5.149450
  H 7.132477 -0.619888 -1.490765
 26
 100.985752
  H 1.154464 0.270824 0.724082
  C 2.217492 0.174880 0.488989
  C 3.123999 0.613875 1.580715
  C 2.385639 1.111093 2.812843
  H 3.094161 1.418971 3.578789
  C 2.460772 -0.296419 -0.680807
  C 4.767064 -0.472050 -1.123857
  C 5.362770 -0.914077 -2.227102
  C 4.775001 -1.425607 -3.502870
  C 3.265997 -1.482391 -3.643574
  C 2.869714 -2.029417 -5.011463
  O 6.699682 -0.930288 -2.265549
  H 3.773953 1.406132 1.201029
  H 3.772407 -0.221359 1.856904
  H 1.755343 0.329673 3.231112
  H 1.757045 1.965296 2.572063
  H 1.919186 -0.632616 -1.516126
  H 5.233462 -0.116058 -0.240137
  H 5.199336 -2.423598 -3.669274
  H 5.198960 -0.818592 -4.312488
  H 2.848677 -0.481316 -3.532174
  H 2.849470 -2.130860 -2.872625
  H 3.253800 -1.399876 -5.810573
  H 1.787288 -2.067511 -5.105401
  H 3.254598 -3.035895 -5.156647
  H 7.138048 -0.604370 -1.454356
 26
 107.549177
  H 1.110342 0.275225 0.747264
  C 2.174698 0.182096 0.484726
  C 3.099096 0.621671 1.578740
  C 2.379216 1.106770 2.829574
  H 3.101098 1.409831 3.581380
  C 2.365632 -0.277588 -0.681135
  C 4.826647 -0.481074 -1.154468
  C 5.394590 -0.926102 -2.251922
  C 4.807100 -1.437161 -3.521631
  C 3.291437 -1.472162 -3.626843
  C 2.861671 -2.023029 -4.981320
  O 6.745565 -0.939193 -2.302368
  H 3.735131 1.420534 1.193687
  H 3.751300 -0.214293 1.836947
  H 1.761548 0.319999 3.255781
  H 1.745100 1.962213 2.609439
  H 1.855205 -0.621273 -1.545818
  H 5.234919 -0.119800 -0.236201
  H 5.215936 -2.439434 -3.680965
  H 5.223785 -0.831565 -4.331998
  H 2.891853 -0.463200 -3.515181
  H 2.883277 -2.110844 -2.842041
  H 3.241270 -1.403994 -5.791222
  H 1.777162 -2.046783 -5.055453
  H 3.231470 -3.036012 -5.124524
  H 7.181989 -0.623049 -1.496273
 26
 112.014435
  H 1.066584 0.289391 0.779981
  C 2.125518 0.192883 0.496500
  C 3.061836 0.623742 1.576008
  C 2.358231 1.103870 2.837638
  H 3.092487 1.402325 3.582130
  C 2.283828 -0.264115 -0.677233
  C 4.899623 -0.491751 -1.181780
  C 5.449454 -0.936188 -2.273741
  C 4.837096 -1.446851 -3.540091
  C 3.317608 -1.463772 -3.604892
  C 2.842336 -2.013051 -4.946336
  O 6.809757 -0.950122 -2.341425
  H 3.693306 1.424111 1.184014
  H 3.714634 -0.217103 1.820534
  H 1.745039 0.316097 3.268891
  H 1.723462 1.962100 2.630311
  H 1.794985 -0.606068 -1.549026
  H 5.276811 -0.134158 -0.258676
  H 5.232125 -2.454785 -3.704980
  H 5.242181 -0.843681 -4.359315
  H 2.935536 -0.449220 -3.484381
  H 2.925021 -2.094855 -2.806684
  H 3.207726 -1.401281 -5.767892
  H 1.755932 -2.023108 -4.991037
  H 3.195179 -3.030713 -5.096397
  H 7.257563 -0.636567 -1.534346
 26
 115.037881
  H 1.014300 0.304776 0.817307
  C 2.068257 0.202467 0.510558
  C 3.025487 0.626444 1.578170
  C 2.341723 1.105282 2.852536
  H 3.088243 1.397900 3.585520
  C 2.189604 -0.249826 -0.661541
  C 4.959415 -0.500039 -1.201743
  C 5.499397 -0.950665 -2.306697
  C 4.869781 -1.456477 -3.559189
  C 3.349699 -1.456539 -3.586376
  C 2.834908 -2.002718 -4.913153
  O 6.853583 -0.968491 -2.394204
  H 3.652521 1.425706 1.177473
  H 3.677027 -0.219098 1.808713
  H 1.732890 0.318884 3.291366
  H 1.708141 1.967095 2.658604
  H 1.716673 -0.593190 -1.545702
  H 5.309236 -0.140270 -0.264103
  H 5.251608 -2.467048 -3.727654
  H 5.263589 -0.856300 -4.383867
  H 2.983988 -0.436828 -3.458228
  H 2.971670 -2.081610 -2.776125
  H 3.187545 -1.396816 -5.744754
  H 1.747890 -2.000408 -4.931443
  H 3.172717 -3.024737 -5.069027
  H 7.307434 -0.661029 -1.597330
 26
 117.001259
  H 0.965335 0.316813 0.846539
  C 2.012788 0.208978 0.518187
  C 2.986295 0.624808 1.570726
  C 2.324018 1.101694 2.854340
  H 3.083981 1.388933 3.576875
  C 2.101544 -0.241931 -0.660288
  C 5.027542 -0.510773 -1.226692
  C 5.554826 -0.959028 -2.324375
  C 4.896670 -1.463145 -3.570987
  C 3.374914 -1.444773 -3.555864
  C 2.813202 -1.987021 -4.866749
  O 6.918222 -0.981486 -2.432140
  H 3.608832 1.422304 1.161358
  H 3.635810 -0.225076 1.787412
  H 1.718974 0.316180 3.300462
  H 1.691776 1.967397 2.672717
  H 1.653642 -0.584332 -1.550511
  H 5.345600 -0.152309 -0.284553
  H 5.263896 -2.479386 -3.745593
  H 5.277314 -0.865370 -4.405068
  H 3.027910 -0.419873 -3.418130
  H 3.014592 -2.062924 -2.732522
  H 3.149620 -1.387457 -5.709449
  H 1.726024 -1.970783 -4.854019
  H 3.133311 -3.013471 -5.030076
  H 7.387506 -0.674165 -1.631969
 26
 118.241751
  H 0.910513 0.332522 0.885530
  C 1.950442 0.216973 0.533042
  C 2.946489 0.625195 1.570476
  C 2.308249 1.104099 2.868101
  H 3.082783 1.385011 3.577072
  C 2.002474 -0.229808 -0.641314
  C 5.083081 -0.518103 -1.241632
  C 5.603799 -0.971668 -2.352362
  C 4.926015 -1.470454 -3.584768
  C 3.406156 -1.435993 -3.532664
  C 2.806886 -1.973249 -4.827312
  O 6.958077 -1.001052 -2.481694
  H 3.565487 1.420515 1.149525
  H 3.593487 -0.231215 1.772888
  H 1.707146 0.321678 3.324219
  H 1.679077 1.974445 2.700130
  H 1.571784 -0.574998 -1.545047
  H 5.372845 -0.156504 -0.287789
  H 5.279947 -2.488825 -3.763271
  H 5.294452 -0.875504 -4.424046
  H 3.075496 -0.406657 -3.387147
  H 3.061375 -2.049065 -2.698747
  H 3.129791 -1.378369 -5.678649
  H 1.720869 -1.945422 -4.788781
  H 3.112369 -3.003211 -4.996510
  H 7.431368 -0.700340 -1.697289
 26
 118.879411
  H 0.858662 0.343926 0.916160
  C 1.890467 0.221329 0.541136
  C 2.904997 0.621906 1.561638
  C 2.292782 1.101457 2.867882
  H 3.081952 1.376563 3.563277
  C 1.909549 -0.225282 -0.638309
  C 5.146899 -0.528698 -1.263604
  C 5.656094 -0.978253 -2.364967
  C 4.947546 -1.474280 -3.589972
  C 3.428207 -1.422173 -3.496864
  C 2.784864 -1.953623 -4.774334
  O 7.019211 -1.015170 -2.516579
  H 3.519178 1.413526 1.130017
  H 3.548095 -0.238884 1.750180
  H 1.695683 0.321616 3.333639
  H 1.666561 1.976297 2.712169
  H 1.505276 -0.570219 -1.546315
  H 5.405724 -0.167067 -0.306537
  H 5.286765 -2.497872 -3.774776
  H 5.302166 -0.881368 -4.438146
  H 3.115963 -0.388470 -3.341968
  H 3.101471 -2.029531 -2.651696
  H 3.091278 -1.363660 -5.635094
  H 1.700455 -1.912779 -4.706067
  H 3.073237 -2.987317 -4.950788
  H 7.512573 -0.712065 -1.725522
 26
 119.193995
  H 0.801218 0.359887 0.959347
  C 1.823307 0.228421 0.559752
  C 2.861439 0.622047 1.562583
  C 2.276087 1.106179 2.882634
  H 3.080825 1.375346 3.562521
  C 1.806312 -0.214817 -0.612626
  C 5.198636 -0.534200 -1.271624
  C 5.702193 -0.989350 -2.388269
  C 4.973083 -1.479004 -3.597889
  C 3.457583 -1.411684 -3.469386
  C 2.779997 -1.936348 -4.729998
  O 7.052583 -1.035631 -2.562200
  H 3.471877 1.410651 1.117129
  H 3.501100 -0.245883 1.737486
  H 1.683286 0.330520 3.360543
  H 1.653927 1.985987 2.739979
  H 1.420122 -0.564189 -1.534270
  H 5.428794 -0.168844 -0.305496
  H 5.299189 -2.504278 -3.786748
  H 5.315303 -0.888393 -4.450577
  H 3.161041 -0.374409 -3.306802
  H 3.146173 -2.015309 -2.615544
  H 3.072958 -1.349611 -5.597591
  H 1.698254 -1.884927 -4.637476
  H 3.054450 -2.972731 -4.912353
  H 7.547021 -0.740758 -1.793434
