 32
 0.000000
  C 0.978673 0.136895 0.392062
  C 2.457035 0.139445 0.397824
  C 3.237623 0.610173 1.569271
  C 2.454193 1.098458 2.784939
  C 3.397330 1.545445 3.897256
  C 3.077025 -0.323749 -0.755524
  C 4.456168 -0.411822 -0.975226
  C 5.126656 -0.863898 -2.102043
  C 4.621504 -1.386279 -3.404154
  C 3.129250 -1.501962 -3.693433
  C 2.898182 -2.063632 -5.093497
  O 6.453322 -0.864794 -2.104414
  H 0.521890 0.503678 1.305675
  H 0.614534 -0.877409 0.221239
  H 0.614168 0.751186 -0.432784
  H 3.893806 1.423259 1.238074
  H 3.894042 -0.205873 1.892569
  H 1.815826 0.300187 3.168756
  H 1.815627 1.940280 2.509886
  H 4.033404 0.725082 4.223721
  H 2.826889 1.890589 4.756627
  H 4.033173 2.363812 3.565357
  H 2.418633 -0.641422 -1.546356
  H 5.077577 -0.080808 -0.150683
  H 5.074513 -2.376187 -3.532216
  H 5.074933 -0.759689 -4.180907
  H 2.655599 -0.520768 -3.638552
  H 2.655131 -2.172892 -2.975669
  H 3.334530 -1.417034 -5.851771
  H 1.831796 -2.142875 -5.291779
  H 3.334077 -3.055240 -5.194501
  H 6.823609 -0.528907 -1.266628
 32
 -0.470650
  C 0.953340 0.046178 0.463290
  C 2.428139 0.057850 0.432324
  C 3.224299 0.584286 1.563507
  C 2.463345 1.149559 2.756549
  C 3.435779 1.686521 3.802707
  C 3.038638 -0.428892 -0.721521
  C 4.416734 -0.508611 -0.926496
  C 5.105941 -0.953710 -2.047904
  C 4.614413 -1.422594 -3.376912
  C 3.127672 -1.469477 -3.711844
  C 2.937668 -1.941867 -5.155851
  O 6.424220 -0.982268 -2.013677
  H 0.543702 0.267810 1.440063
  H 0.569119 -0.911884 0.111321
  H 0.575835 0.795055 -0.238763
  H 3.888945 1.365584 1.184647
  H 3.881501 -0.216926 1.924348
  H 1.851337 0.375299 3.217331
  H 1.810046 1.959669 2.436479
  H 4.091515 0.899591 4.164621
  H 2.892529 2.087299 4.653972
  H 4.049179 2.483860 3.391561
  H 2.380320 -0.769831 -1.495923
  H 5.047127 -0.191155 -0.104331
  H 5.043349 -2.421599 -3.524585
  H 5.122071 -0.794126 -4.119840
  H 2.684635 -0.474573 -3.612626
  H 2.610835 -2.171477 -3.051463
  H 3.421974 -1.265307 -5.854014
  H 1.882139 -1.982005 -5.404518
  H 3.354947 -2.934804 -5.298849
  H 6.818167 -0.691588 -1.169415
 32
 -0.804813
  C 0.961425 0.025266 0.483125
  C 2.432991 0.009709 0.441960
  C 3.232160 0.562503 1.562752
  C 2.465674 1.218808 2.714681
  C 3.434703 1.813635 3.731740
  C 3.038084 -0.505105 -0.699820
  C 4.414450 -0.620946 -0.890845
  C 5.103524 -1.078143 -2.009362
  C 4.614116 -1.485430 -3.355271
  C 3.133219 -1.443186 -3.714380
  C 2.944868 -1.844287 -5.177205
  O 6.417898 -1.172678 -1.953595
  H 0.570832 0.085269 1.493896
  H 0.541412 -0.832167 -0.032726
  H 0.605617 0.914117 -0.049511
  H 3.936389 1.297977 1.160882
  H 3.847698 -0.244619 1.975284
  H 1.838613 0.484257 3.223578
  H 1.821653 2.013959 2.333490
  H 4.081616 1.044980 4.149141
  H 2.887898 2.273416 4.552152
  H 4.058791 2.578576 3.274809
  H 2.374812 -0.845038 -1.478489
  H 5.043270 -0.333077 -0.058838
  H 4.992612 -2.499210 -3.524159
  H 5.166826 -0.864364 -4.071081
  H 2.739031 -0.435139 -3.578937
  H 2.573535 -2.142278 -3.095937
  H 3.472491 -1.163382 -5.838684
  H 1.893276 -1.822842 -5.442318
  H 3.316449 -2.849004 -5.355943
  H 6.811117 -0.930971 -1.094795
 32
 -1.192990
  C 0.967306 0.044004 0.495414
  C 2.437201 -0.001887 0.440495
  C 3.241883 0.575114 1.547273
  C 2.480360 1.320196 2.642466
  C 3.450046 1.932520 3.649644
  C 3.034742 -0.567968 -0.679466
  C 4.409616 -0.731672 -0.853175
  C 5.092677 -1.231932 -1.957623
  C 4.604234 -1.598978 -3.315071
  C 3.142276 -1.430128 -3.708110
  C 2.964198 -1.759261 -5.188828
  O 6.397522 -1.405603 -1.877630
  H 0.598369 -0.054153 1.513438
  H 0.513126 -0.703371 -0.144137
  H 0.631783 1.023652 0.145553
  H 3.987241 1.256773 1.125320
  H 3.811207 -0.236906 2.016189
  H 1.811194 0.640744 3.175138
  H 1.875745 2.116305 2.202791
  H 4.053372 1.163326 4.127182
  H 2.904965 2.460557 4.426792
  H 4.117518 2.643213 3.166693
  H 2.368407 -0.913312 -1.455008
  H 5.037731 -0.460875 -0.015230
  H 4.901860 -2.641207 -3.480161
  H 5.223563 -1.023040 -4.014976
  H 2.821582 -0.402172 -3.540020
  H 2.514819 -2.107340 -3.133385
  H 3.556944 -1.093422 -5.810122
  H 1.922915 -1.650774 -5.477520
  H 3.266747 -2.779531 -5.398673
  H 6.789273 -1.192617 -1.009070
 32
 -1.487238
  C 0.973916 0.109936 0.487008
  C 2.440869 0.028770 0.424162
  C 3.254849 0.606274 1.522522
  C 2.501824 1.376401 2.605066
  C 3.474265 1.968444 3.619213
  C 3.028911 -0.567417 -0.684543
  C 4.400447 -0.771300 -0.840623
  C 5.079388 -1.324122 -1.921220
  C 4.597374 -1.699256 -3.280224
  C 3.161153 -1.433321 -3.715298
  C 3.005376 -1.743000 -5.202557
  O 6.373486 -1.551827 -1.812434
  H 0.611797 -0.175852 1.474631
  H 0.495180 -0.493342 -0.273290
  H 0.662738 1.147967 0.350481
  H 4.013970 1.267478 1.095372
  H 3.806418 -0.210310 2.003988
  H 1.808825 0.719104 3.130803
  H 1.923699 2.185051 2.155766
  H 4.052399 1.185326 4.108835
  H 2.933069 2.516541 4.388461
  H 4.165743 2.658273 3.140118
  H 2.361542 -0.920352 -1.451755
  H 5.027969 -0.492751 -0.003645
  H 4.821425 -2.763519 -3.408395
  H 5.272388 -1.192080 -3.977985
  H 2.903246 -0.386983 -3.548544
  H 2.471904 -2.071969 -3.163220
  H 3.656708 -1.111750 -5.802700
  H 1.980558 -1.567859 -5.520237
  H 3.249580 -2.779921 -5.410635
  H 6.756592 -1.334759 -0.940507
 32
 -1.491831
  C 0.984868 0.129760 0.494647
  C 2.452174 0.042179 0.415111
  C 3.274254 0.630869 1.498417
  C 2.539216 1.487240 2.525576
  C 3.517788 2.071928 3.539179
  C 3.028831 -0.602589 -0.671729
  C 4.391136 -0.871455 -0.804559
  C 5.051356 -1.486878 -1.864017
  C 4.576068 -1.813501 -3.236418
  C 3.188135 -1.399400 -3.710212
  C 3.060568 -1.640034 -5.212857
  O 6.314421 -1.831825 -1.715859
  H 0.640465 -0.317490 1.427040
  H 0.494315 -0.355791 -0.343073
  H 0.670173 1.173482 0.539088
  H 4.079337 1.227988 1.058908
  H 3.767972 -0.190675 2.032552
  H 1.795492 0.892117 3.059090
  H 2.020082 2.305929 2.025737
  H 4.033431 1.283606 4.082964
  H 2.990537 2.687623 4.262604
  H 4.262760 2.695334 3.048114
  H 2.357291 -0.955421 -1.434223
  H 5.020040 -0.618117 0.040501
  H 4.695246 -2.894164 -3.364095
  H 5.320220 -1.374511 -3.911320
  H 3.020392 -0.341098 -3.509625
  H 2.421195 -1.990743 -3.207801
  H 3.787262 -1.049977 -5.765410
  H 2.068167 -1.361083 -5.557794
  H 3.218679 -2.688089 -5.452949
  H 6.684912 -1.651101 -0.832952
 32
 -1.025981
  C 0.994819 0.038952 0.553835
  C 2.460424 0.017271 0.425435
  C 3.296050 0.653988 1.473453
  C 2.578546 1.585178 2.448010
  C 3.571098 2.213474 3.421954
  C 3.027638 -0.647735 -0.654421
  C 4.383100 -0.948716 -0.778201
  C 5.021702 -1.613462 -1.820861
  C 4.561295 -1.876409 -3.212097
  C 3.220676 -1.349617 -3.705894
  C 3.123951 -1.516655 -5.218055
  O 6.246617 -2.063431 -1.639378
  H 0.715166 -0.554988 1.426858
  H 0.496762 -0.367284 -0.322036
  H 0.629167 1.042246 0.750320
  H 4.118113 1.202394 1.003840
  H 3.763562 -0.148138 2.059645
  H 1.823421 1.035605 3.019338
  H 2.076089 2.380240 1.899168
  H 4.070780 1.450244 4.016594
  H 3.058875 2.884995 4.102622
  H 4.329557 2.788171 2.890807
  H 2.350323 -1.006805 -1.411171
  H 5.013421 -0.712432 0.069874
  H 4.608940 -2.957217 -3.368538
  H 5.351549 -1.471479 -3.854894
  H 3.116902 -0.292644 -3.461434
  H 2.398859 -1.908484 -3.251619
  H 3.903550 -0.955996 -5.722018
  H 2.163337 -1.155921 -5.577911
  H 3.218915 -2.560999 -5.499422
  H 6.605218 -1.923557 -0.743373
 32
 0.005654
  C 1.009514 -0.136118 0.670847
  C 2.462931 -0.042864 0.457957
  C 3.309316 0.667955 1.445231
  C 2.590844 1.633713 2.390104
  C 3.590842 2.350140 3.287578
  C 3.018924 -0.705543 -0.628571
  C 4.368901 -1.025714 -0.757977
  C 4.979156 -1.735169 -1.789306
  C 4.542396 -1.915543 -3.199599
  C 3.251485 -1.276301 -3.701053
  C 3.171484 -1.389788 -5.220514
  O 6.147823 -2.303794 -1.577418
  H 0.848186 -0.816541 1.510936
  H 0.490809 -0.532754 -0.197534
  H 0.571949 0.817442 0.962426
  H 4.105160 1.207338 0.924487
  H 3.809093 -0.091521 2.063110
  H 1.876361 1.095019 3.019528
  H 2.044017 2.376795 1.812904
  H 4.132902 1.641342 3.909505
  H 3.077547 3.048240 3.944149
  H 4.314796 2.914626 2.694853
  H 2.334522 -1.076010 -1.369520
  H 5.006249 -0.805027 0.090013
  H 4.526109 -2.988136 -3.405741
  H 5.380806 -1.530624 -3.805216
  H 3.218655 -0.223077 -3.422184
  H 2.386614 -1.782593 -3.281716
  H 4.000264 -0.876010 -5.693070
  H 2.253606 -0.947288 -5.582859
  H 3.191550 -2.437757 -5.536010
  H 6.483750 -2.223403 -0.665201
 32
 1.055248
  C 1.039862 -0.225629 0.743584
  C 2.477303 -0.057981 0.472672
  C 3.330640 0.703151 1.418373
  C 2.609520 1.679639 2.347072
  C 3.610780 2.460858 3.192227
  C 3.023512 -0.719482 -0.619306
  C 4.370293 -1.049490 -0.751681
  C 4.957827 -1.786761 -1.778561
  C 4.540695 -1.912113 -3.200984
  C 3.288500 -1.200525 -3.703152
  C 3.210301 -1.295313 -5.225019
  O 6.080149 -2.434989 -1.546615
  H 0.958613 -0.931033 1.574887
  H 0.507518 -0.638213 -0.106109
  H 0.563750 0.693446 1.071116
  H 4.099481 1.243725 0.861555
  H 3.861697 -0.020596 2.047609
  H 1.930995 1.143029 3.012324
  H 2.024185 2.385323 1.756708
  H 4.190095 1.795434 3.826355
  H 3.091882 3.169919 3.835092
  H 4.297923 3.019650 2.562798
  H 2.332108 -1.097359 -1.355665
  H 5.012743 -0.839982 0.096938
  H 4.484842 -2.978177 -3.442739
  H 5.401146 -1.544365 -3.775312
  H 3.310881 -0.149617 -3.413318
  H 2.391120 -1.663577 -3.291523
  H 4.074522 -0.825411 -5.691519
  H 2.317567 -0.794437 -5.589856
  H 3.170759 -2.333147 -5.547638
  H 6.395047 -2.390326 -0.624039
 32
 1.544328
  C 1.077716 -0.271527 0.765353
  C 2.500855 -0.033016 0.463843
  C 3.346748 0.744666 1.402416
  C 2.612253 1.681044 2.362448
  C 3.605710 2.485764 3.195465
  C 3.050775 -0.671589 -0.638924
  C 4.400247 -0.985983 -0.780045
  C 4.982774 -1.739533 -1.798000
  C 4.550860 -1.894599 -3.211550
  C 3.312559 -1.164684 -3.720185
  C 3.234139 -1.270143 -5.241357
  O 6.107607 -2.381943 -1.561840
  H 1.064699 -1.037504 1.546129
  H 0.535979 -0.654896 -0.092244
  H 0.572757 0.600444 1.167494
  H 4.082794 1.321263 0.836195
  H 3.918913 0.031462 2.008456
  H 1.971154 1.110930 3.035844
  H 1.985962 2.373215 1.795836
  H 4.225072 1.830670 3.803508
  H 3.078989 3.163732 3.862584
  H 4.256726 3.080589 2.557980
  H 2.359575 -1.066484 -1.365425
  H 5.047463 -0.760080 0.060232
  H 4.464645 -2.965435 -3.424092
  H 5.414926 -1.564856 -3.803151
  H 3.353054 -0.111934 -3.437489
  H 2.406689 -1.606878 -3.306435
  H 4.104882 -0.817061 -5.710032
  H 2.349182 -0.759008 -5.611011
  H 3.179698 -2.309837 -5.555413
  H 6.429591 -2.318618 -0.643150
 32
 1.171473
  C 1.076511 -0.283658 0.752623
  C 2.499040 -0.034541 0.464088
  C 3.335980 0.738451 1.412645
  C 2.594455 1.654496 2.385849
  C 3.582331 2.457169 3.226410
  C 3.055005 -0.661422 -0.644646
  C 4.409450 -0.941182 -0.796522
  C 5.000480 -1.685185 -1.816035
  C 4.542672 -1.888095 -3.215693
  C 3.286546 -1.187504 -3.721250
  C 3.204836 -1.297426 -5.241419
  O 6.155387 -2.275720 -1.595211
  H 1.062611 -1.100858 1.479792
  H 0.531131 -0.613689 -0.126266
  H 0.575721 0.564393 1.208613
  H 4.065866 1.330482 0.854083
  H 3.915668 0.022086 2.009129
  H 1.961313 1.069512 3.053467
  H 1.960261 2.347845 1.830258
  H 4.211053 1.799483 3.822342
  H 3.051138 3.119469 3.905538
  H 4.224184 3.068208 2.595535
  H 2.367922 -1.070779 -1.366646
  H 5.059158 -0.689883 0.033108
  H 4.463823 -2.965647 -3.392008
  H 5.390100 -1.569622 -3.834932
  H 3.303929 -0.133748 -3.441129
  H 2.392993 -1.649926 -3.303712
  H 4.060808 -0.821343 -5.714283
  H 2.304575 -0.811153 -5.608067
  H 3.177478 -2.338793 -5.553799
  H 6.496288 -2.180096 -0.685944
 32
 1.154198
  C 1.067932 -0.254717 0.731764
  C 2.498685 -0.018794 0.459253
  C 3.335012 0.737728 1.420193
  C 2.595680 1.650679 2.400170
  C 3.586686 2.436846 3.252512
  C 3.057764 -0.643482 -0.652837
  C 4.416920 -0.916089 -0.806037
  C 5.009737 -1.664067 -1.824642
  C 4.537592 -1.900157 -3.212901
  C 3.279154 -1.211633 -3.722313
  C 3.201612 -1.326227 -5.241105
  O 6.177658 -2.230157 -1.611440
  H 1.032614 -1.105600 1.414570
  H 0.519646 -0.533139 -0.163599
  H 0.582116 0.580273 1.225442
  H 4.073015 1.330718 0.871264
  H 3.906739 0.009070 2.013350
  H 1.955466 1.064175 3.059872
  H 1.969357 2.354685 1.849278
  H 4.208377 1.768197 3.842793
  H 3.058232 3.095393 3.937328
  H 4.234930 3.050184 2.630509
  H 2.371016 -1.056640 -1.375585
  H 5.068108 -0.653882 0.019616
  H 4.455408 -2.979066 -3.360190
  H 5.376394 -1.600532 -3.847291
  H 3.287605 -0.157403 -3.445451
  H 2.389382 -1.680185 -3.305911
  H 4.053466 -0.841723 -5.713665
  H 2.296818 -0.850756 -5.610436
  H 3.186151 -2.369019 -5.550944
  H 6.529441 -2.113358 -0.707650
