 21
 0.000000
  C 0.892158 0.053193 0.317537
  C 2.378211 0.044611 0.070006
  C 3.229502 -0.032817 1.314937
  H 2.651979 -0.041376 2.230063
  C 2.965218 0.110745 -1.124001
  C 2.358385 0.219029 -2.498619
  C 0.850535 0.187701 -2.722471
  C 0.543777 0.308463 -4.213010
  H 4.044732 0.112825 -1.169594
  H 0.683068 -0.011157 1.381428
  H 0.405934 -0.791245 -0.164997
  H 0.437181 0.969274 -0.051655
  H 3.908778 0.819850 1.356175
  H 3.838767 -0.932916 1.298014
  H 2.794656 -0.592464 -3.094984
  H 2.739178 1.151608 -2.934486
  H 0.367997 1.014275 -2.202584
  H 0.430766 -0.749419 -2.356885
  H 0.933589 1.243136 -4.611220
  H -0.530329 0.286101 -4.383315
  H 0.994740 -0.512734 -4.766579
 21
 -0.793160
  C 0.884334 0.200960 0.353508
  C 2.356765 0.066779 0.073347
  C 3.232197 -0.110888 1.291491
  H 2.643219 -0.327759 2.177891
  C 2.931066 0.106047 -1.124991
  C 2.366763 0.266253 -2.510001
  C 0.865689 0.122341 -2.741736
  C 0.541175 0.255573 -4.226596
  H 4.013331 0.037472 -1.151289
  H 0.695570 0.160110 1.423305
  H 0.316400 -0.597996 -0.116789
  H 0.503875 1.151725 -0.014172
  H 3.809884 0.793589 1.482832
  H 3.932837 -0.928991 1.143123
  H 2.871932 -0.474603 -3.141042
  H 2.683383 1.248924 -2.882252
  H 0.320072 0.889511 -2.195019
  H 0.531829 -0.856061 -2.393355
  H 0.851697 1.229347 -4.600334
  H -0.528312 0.149708 -4.394741
  H 1.055576 -0.510716 -4.803311
 21
 -1.363470
  C 0.904214 0.336461 0.362155
  C 2.359093 0.094331 0.069095
  C 3.215844 -0.182948 1.279694
  H 2.625042 -0.641290 2.069923
  C 2.930612 0.101397 -1.130739
  C 2.369240 0.301470 -2.511724
  C 0.878571 0.067938 -2.742150
  C 0.535924 0.207101 -4.222074
  H 4.010003 -0.005137 -1.157359
  H 0.733902 0.345907 1.436149
  H 0.275196 -0.438211 -0.070483
  H 0.584886 1.297430 -0.036566
  H 3.650427 0.736338 1.671107
  H 4.018261 -0.867389 1.020040
  H 2.916595 -0.379946 -3.172449
  H 2.622823 1.317107 -2.840376
  H 0.287748 0.786721 -2.177672
  H 0.612742 -0.936346 -2.407140
  H 0.780265 1.205904 -4.578470
  H -0.525520 0.035163 -4.386487
  H 1.095220 -0.512965 -4.816302
 21
 -1.657504
  C 0.942542 0.475756 0.360731
  C 2.373135 0.126087 0.060755
  C 3.184622 -0.263155 1.266169
  H 2.611580 -0.947922 1.890820
  C 2.948053 0.108892 -1.137481
  C 2.367968 0.344026 -2.506390
  C 0.894223 0.014228 -2.731724
  C 0.531149 0.151821 -4.206783
  H 4.023145 -0.024025 -1.171084
  H 0.799213 0.551674 1.436367
  H 0.254677 -0.278664 -0.015819
  H 0.679732 1.432807 -0.085491
  H 3.451607 0.602387 1.870242
  H 4.078833 -0.783684 0.940193
  H 2.951020 -0.271709 -3.199424
  H 2.548254 1.387247 -2.794080
  H 0.258796 0.681215 -2.152986
  H 0.701474 -1.010781 -2.408203
  H 0.703369 1.170549 -4.548577
  H -0.517236 -0.090263 -4.366625
  H 1.133753 -0.518567 -4.816547
 21
 0.782781
  C 0.990542 0.641122 0.349473
  C 2.382264 0.162723 0.048302
  C 3.133484 -0.363264 1.238093
  H 2.615446 -1.251682 1.606103
  C 2.976711 0.143127 -1.143356
  C 2.362991 0.388039 -2.497435
  C 0.918144 -0.057739 -2.708866
  C 0.520869 0.075284 -4.175417
  H 4.057228 0.093865 -1.172902
  H 0.871170 0.752312 1.424937
  H 0.226903 -0.054259 0.004298
  H 0.813948 1.606238 -0.120769
  H 3.207765 0.349233 2.054565
  H 4.101641 -0.700788 0.890686
  H 2.981159 -0.158429 -3.217382
  H 2.451382 1.450635 -2.756217
  H 0.238448 0.543279 -2.109179
  H 0.815827 -1.100328 -2.399494
  H 0.596145 1.111808 -4.498100
  H -0.504147 -0.256540 -4.325449
  H 1.170845 -0.526417 -4.807756
 21
 10.877669
  C 1.000302 0.788149 0.369135
  C 2.341375 0.195296 0.055210
  C 3.085951 -0.442503 1.193993
  H 2.626389 -1.414329 1.401362
  C 2.983720 0.187627 -1.123420
  C 2.368324 0.401270 -2.485830
  C 0.971186 -0.172245 -2.704053
  C 0.524386 0.013860 -4.150002
  H 4.050694 0.358893 -1.123301
  H 0.890313 0.867672 1.448166
  H 0.162545 0.194954 0.002145
  H 0.928489 1.780875 -0.070713
  H 3.126378 0.130888 2.111391
  H 4.026915 -0.724826 0.735538
  H 3.040625 -0.073812 -3.207131
  H 2.352667 1.472178 -2.728569
  H 0.252521 0.316717 -2.051035
  H 0.978729 -1.237192 -2.459953
  H 0.509693 1.070088 -4.411253
  H -0.474849 -0.389933 -4.297089
  H 1.202519 -0.495928 -4.831677
 21
 29.739829
  C 0.993079 0.932392 0.421264
  C 2.269239 0.235930 0.081015
  C 3.033291 -0.535569 1.116719
  H 2.662550 -1.564416 1.203049
  C 2.952669 0.243277 -1.079904
  C 2.371355 0.443584 -2.459414
  C 1.041786 -0.265591 -2.702420
  C 0.561026 -0.068196 -4.135756
  H 3.967269 0.608842 -1.036705
  H 0.890610 0.975085 1.502881
  H 0.102566 0.433405 0.032254
  H 1.008651 1.942200 0.016067
  H 3.123369 -0.089930 2.097251
  H 3.873776 -0.791179 0.447415
  H 3.103357 0.064640 -3.177589
  H 2.244020 1.515598 -2.667882
  H 0.284026 0.113871 -2.018662
  H 1.164747 -1.332843 -2.503178
  H 0.466736 0.991958 -4.363269
  H -0.408585 -0.538985 -4.283857
  H 1.264783 -0.506225 -4.841192
 21
 57.578220
  C 0.978010 1.029319 0.509386
  C 2.215269 0.284747 0.136978
  C 2.974349 -0.597379 1.039177
  H 2.763730 -1.665540 0.958119
  C 2.932661 0.298547 -1.035815
  C 2.372605 0.467637 -2.435245
  C 1.074185 -0.293684 -2.688773
  C 0.614612 -0.148636 -4.134742
  H 3.905764 0.766678 -0.977631
  H 0.841424 0.984829 1.587622
  H 0.081809 0.607651 0.048685
  H 1.050618 2.068837 0.194282
  H 3.067837 -0.305173 2.079529
  H 3.750724 -0.739906 0.105345
  H 3.128392 0.106965 -3.137953
  H 2.215361 1.533618 -2.654203
  H 0.290697 0.074985 -2.027566
  H 1.230713 -1.350822 -2.460638
  H 0.468661 0.900489 -4.384328
  H -0.324917 -0.673344 -4.293837
  H 1.355908 -0.560843 -4.816683
 21
 73.597090
  C 0.993695 1.089419 0.542603
  C 2.200682 0.297238 0.179131
  C 2.882826 -0.621855 1.013151
  H 2.752097 -1.679419 0.831877
  C 2.957421 0.305587 -1.022880
  C 2.386393 0.469444 -2.419603
  C 1.108940 -0.329498 -2.668511
  C 0.630246 -0.185341 -4.108272
  H 3.910228 0.823953 -0.955926
  H 0.819314 1.020086 1.614286
  H 0.106593 0.707988 0.036853
  H 1.107364 2.136941 0.263081
  H 2.956510 -0.423497 2.086502
  H 3.688782 -0.683270 -0.215390
  H 3.145778 0.134881 -3.134023
  H 2.202212 1.531068 -2.623951
  H 0.321213 0.008684 -1.995689
  H 1.300418 -1.383128 -2.452001
  H 0.449585 0.860902 -4.346540
  H -0.294505 -0.736226 -4.262656
  H 1.376660 -0.568532 -4.800843
 21
 60.785743
  C 1.017466 1.117514 0.562468
  C 2.204028 0.289108 0.219113
  C 2.805242 -0.643788 1.020908
  H 2.706394 -1.685860 0.777078
  C 2.998877 0.302638 -1.019895
  C 2.400968 0.473379 -2.403347
  C 1.123570 -0.331546 -2.632250
  C 0.645172 -0.222869 -4.075029
  H 3.933521 0.870107 -0.939742
  H 0.815111 1.051565 1.630642
  H 0.142270 0.746943 0.031433
  H 1.153464 2.165749 0.288272
  H 2.857889 -0.513212 2.105968
  H 3.633697 -0.617692 -0.500626
  H 3.143759 0.171586 -3.147332
  H 2.192802 1.534750 -2.568038
  H 0.334958 0.011131 -1.963779
  H 1.325086 -1.380005 -2.398888
  H 0.440795 0.814591 -4.331406
  H -0.266208 -0.797789 -4.222468
  H 1.402186 -0.600133 -4.759116
 21
 36.421719
  C 1.092385 1.232445 0.556316
  C 2.209898 0.301221 0.243441
  C 2.666604 -0.678631 1.032674
  H 2.690488 -1.695941 0.688564
  C 3.008852 0.307999 -1.022923
  C 2.395736 0.471419 -2.398053
  C 1.206121 -0.452899 -2.649326
  C 0.613985 -0.242623 -4.037836
  H 3.902433 0.949875 -0.939106
  H 0.806105 1.143387 1.602910
  H 0.234091 0.963874 -0.057031
  H 1.341996 2.273716 0.343355
  H 2.579733 -0.652250 2.118534
  H 3.628254 -0.576586 -0.689227
  H 3.165832 0.224259 -3.136375
  H 2.119645 1.514088 -2.565903
  H 0.431507 -0.259271 -1.905452
  H 1.521143 -1.490902 -2.530948
  H 0.321522 0.796439 -4.173339
  H -0.265961 -0.866400 -4.178848
  H 1.340601 -0.495575 -4.807159
 21
 17.452632
  C 1.158506 1.263820 0.498487
  C 2.233239 0.265539 0.229474
  C 2.572968 -0.727725 1.049691
  H 2.752284 -1.730507 0.704441
  C 3.053253 0.301199 -1.033522
  C 2.394102 0.486195 -2.389843
  C 1.208243 -0.451395 -2.612069
  C 0.604221 -0.270619 -3.999691
  H 3.877595 1.016752 -0.902483
  H 0.845121 1.220945 1.539492
  H 0.303167 1.017287 -0.126735
  H 1.464385 2.283207 0.260825
  H 2.380488 -0.696026 2.116852
  H 3.625823 -0.627640 -0.866769
  H 3.134705 0.310925 -3.173476
  H 2.057293 1.522451 -2.478511
  H 0.441641 -0.272181 -1.858526
  H 1.549316 -1.483182 -2.498124
  H 0.284036 0.759234 -4.145683
  H -0.259154 -0.919333 -4.129861
  H 1.333692 -0.513590 -4.769514
 21
 5.557316
  C 1.220922 1.280400 0.496697
  C 2.240756 0.221065 0.231507
  C 2.514983 -0.771672 1.068216
  H 2.863287 -1.731821 0.726672
  C 3.048059 0.273123 -1.035478
  C 2.355205 0.510334 -2.369948
  C 1.189399 -0.446793 -2.613520
  C 0.612887 -0.283986 -4.014736
  H 3.819004 1.044357 -0.886778
  H 0.875025 1.235783 1.526805
  H 0.368589 1.110107 -0.158451
  H 1.603225 2.280516 0.291793
  H 2.198480 -0.784288 2.101937
  H 3.659118 -0.637240 -0.995574
  H 3.088582 0.365050 -3.167471
  H 2.009488 1.544518 -2.428228
  H 0.401806 -0.274532 -1.878902
  H 1.541715 -1.472325 -2.480982
  H 0.238995 0.727959 -4.157922
  H -0.207702 -0.979319 -4.176097
  H 1.375862 -0.473490 -4.766971
 21
 -1.908849
  C 1.264787 1.314074 0.429923
  C 2.245937 0.204248 0.208749
  C 2.396016 -0.795130 1.064281
  H 2.932383 -1.695241 0.817631
  C 3.092399 0.270768 -1.031548
  C 2.363296 0.507888 -2.352733
  C 1.260692 -0.517797 -2.608113
  C 0.568299 -0.277686 -3.944238
  H 3.825714 1.072420 -0.878009
  H 0.840963 1.263297 1.429878
  H 0.453236 1.231640 -0.290558
  H 1.731988 2.289182 0.293482
  H 1.917300 -0.789429 2.030705
  H 3.679731 -0.649141 -1.073738
  H 3.092949 0.437845 -3.163703
  H 1.947762 1.517313 -2.374366
  H 0.521952 -0.478384 -1.806167
  H 1.697802 -1.518873 -2.599015
  H 0.106837 0.707695 -3.963913
  H -0.206422 -1.021883 -4.114240
  H 1.284061 -0.335061 -4.761738
 21
 -4.235939
  C 1.383642 1.433292 0.472376
  C 2.220298 0.224194 0.179722
  C 2.191133 -0.852764 0.946576
  H 2.781473 -1.725080 0.722519
  C 3.108968 0.308635 -1.031090
  C 2.343225 0.523998 -2.340312
  C 1.361110 -0.609834 -2.624414
  C 0.546918 -0.350927 -3.886035
  H 3.807004 1.140674 -0.892568
  H 0.922565 1.357922 1.453398
  H 0.591599 1.535666 -0.269622
  H 1.992453 2.335768 0.436207
  H 1.575188 -0.905515 1.828752
  H 3.689533 -0.612091 -1.102928
  H 3.064265 0.588037 -3.158943
  H 1.806077 1.473531 -2.304550
  H 0.688730 -0.727965 -1.771888
  H 1.914664 -1.544673 -2.734801
  H -0.031542 0.565505 -3.787409
  H -0.141681 -1.171897 -4.073964
  H 1.202061 -0.248733 -4.748458
