 20
 0.000000
  C 1.006698 -0.071797 0.047111
  C 2.503042 -0.082618 0.025868
  C 3.218739 -0.595320 -0.980653
  C 4.658137 -0.605249 -1.000142
  C 5.378218 -1.120642 -2.011946
  C 6.816639 -1.130574 -2.031442
  C 7.534503 -1.642445 -3.036336
  C 9.024414 -1.662019 -3.074756
  H 0.644316 0.394375 0.962279
  H 0.611286 -1.086581 0.008349
  H 0.611287 0.493500 -0.796528
  H 3.003251 0.352804 0.880677
  H 2.704748 -1.029328 -1.832676
  H 5.165728 -0.169860 -0.145405
  H 4.873898 -1.555489 -2.865622
  H 7.323606 -0.696211 -1.178711
  H 7.035468 -2.078602 -3.892569
  H 9.458549 -1.208951 -2.185318
  H 9.383436 -1.116176 -3.948600
  H 9.383437 -2.689797 -3.147029
 20
 1.804483
  C 1.012004 -0.196360 0.103104
  C 2.505617 -0.149804 0.030828
  C 3.205094 -0.397635 -1.078048
  C 4.647322 -0.371884 -1.135255
  C 5.370542 -1.041915 -2.046740
  C 6.806205 -1.059005 -2.076444
  C 7.526242 -1.728981 -2.978935
  C 9.014708 -1.751670 -3.028310
  H 0.661918 0.012132 1.110534
  H 0.644795 -1.179362 -0.193674
  H 0.570579 0.535744 -0.574419
  H 3.031634 0.049683 0.954912
  H 2.688765 -0.521867 -2.022008
  H 5.151917 0.195757 -0.362871
  H 4.863386 -1.605995 -2.819725
  H 7.309887 -0.491385 -1.304013
  H 7.023058 -2.307514 -3.742803
  H 9.442944 -1.167962 -2.216629
  H 9.367159 -1.345705 -3.977588
  H 9.380559 -2.776831 -2.957568
 20
 7.621552
  C 1.066344 -0.374980 0.136072
  C 2.544669 -0.189241 -0.004153
  C 3.194124 -0.158564 -1.166666
  C 4.653482 -0.162577 -1.229471
  C 5.354461 -0.937253 -2.066273
  C 6.789870 -0.973118 -2.113404
  C 7.489826 -1.798349 -2.893449
  C 8.978074 -1.851915 -2.952189
  H 0.769359 -0.368991 1.180483
  H 0.767115 -1.327569 -0.303243
  H 0.518990 0.410457 -0.384100
  H 3.117226 -0.154741 0.912697
  H 2.735993 0.088535 -2.111798
  H 5.169974 0.485566 -0.532794
  H 4.832456 -1.591264 -2.752026
  H 7.307852 -0.285148 -1.457567
  H 6.969508 -2.492472 -3.542664
  H 9.423253 -1.127365 -2.273972
  H 9.324534 -1.644748 -3.965746
  H 9.331346 -2.847978 -2.684632
 20
 22.119501
  C 1.144041 -0.464144 0.223461
  C 2.564830 -0.118391 -0.106249
  C 3.087209 -0.116370 -1.330377
  C 4.581796 -0.093777 -1.372445
  C 5.304004 -0.939064 -2.111915
  C 6.745798 -0.993214 -2.099307
  C 7.468850 -1.804618 -2.873115
  C 8.954785 -1.880765 -2.865371
  H 0.965571 -0.406461 1.294618
  H 0.927276 -1.477746 -0.110271
  H 0.441856 0.202364 -0.282104
  H 3.227842 0.022718 0.737489
  H 2.829307 0.337937 -2.265434
  H 5.072370 0.584103 -0.689552
  H 4.801360 -1.633263 -2.773646
  H 7.243598 -0.317708 -1.414167
  H 6.969164 -2.479103 -3.555756
  H 9.378144 -1.179003 -2.152589
  H 9.350857 -1.659094 -3.856320
  H 9.279339 -2.886360 -2.602310
 20
 43.278380
  C 1.193550 -0.429966 0.311482
  C 2.585092 -0.165954 -0.182651
  C 2.944556 -0.165005 -1.467669
  C 4.504369 -0.141262 -1.425510
  C 5.259582 -0.944643 -2.171662
  C 6.702345 -0.980925 -2.117201
  C 7.452854 -1.812462 -2.833913
  C 8.938375 -1.853862 -2.799439
  H 1.146684 -0.373149 1.394513
  H 0.871727 -1.419803 0.005282
  H 0.486566 0.286748 -0.107682
  H 3.334374 -0.047025 0.585717
  H 3.051429 0.228889 -2.448104
  H 4.966262 0.566589 -0.753892
  H 4.787343 -1.634963 -2.859015
  H 7.172373 -0.279494 -1.437720
  H 6.978805 -2.517891 -3.507500
  H 9.332557 -1.125201 -2.096733
  H 9.345101 -1.644461 -3.786801
  H 9.282509 -2.846647 -2.508142
 20
 54.264719
  C 1.259715 -0.433276 0.341386
  C 2.636332 -0.221636 -0.233113
  C 2.880459 -0.080173 -1.524114
  C 4.469377 -0.058380 -1.505221
  C 5.229709 -0.908253 -2.198288
  C 6.667693 -0.946763 -2.129804
  C 7.418273 -1.823146 -2.794964
  C 8.901479 -1.875033 -2.741483
  H 1.299358 -0.521937 1.422458
  H 0.811923 -1.340802 -0.063106
  H 0.605671 0.395069 0.082235
  H 3.439774 -0.239476 0.485095
  H 3.122362 0.174785 -2.524873
  H 4.904855 0.685236 -0.856124
  H 4.759570 -1.640312 -2.850004
  H 7.136350 -0.210428 -1.488709
  H 6.946774 -2.559845 -3.429293
  H 9.294395 -1.106779 -2.080863
  H 9.320831 -1.730343 -3.733619
  H 9.232440 -2.850420 -2.385460
 20
 64.486907
  C 1.256066 -0.401199 0.395240
  C 2.635427 -0.207259 -0.205318
  C 2.825941 -0.097577 -1.512582
  C 4.445942 -0.020011 -1.640571
  C 5.218990 -0.912406 -2.273674
  C 6.657526 -0.937339 -2.168808
  C 7.435396 -1.840868 -2.794561
  C 8.932137 -1.895981 -2.696464
  H 1.310988 -0.452341 1.491301
  H 0.813682 -1.326964 0.030534
  H 0.593091 0.414310 0.114089
  H 3.443964 -0.231264 0.518648
  H 3.134106 0.097373 -2.536553
  H 4.830334 0.760551 -1.012623
  H 4.774775 -1.671804 -2.902178
  H 7.108351 -0.174379 -1.550707
  H 6.979895 -2.602388 -3.411217
  H 9.315026 -1.109714 -2.049700
  H 9.383326 -1.792705 -3.692547
  H 9.248169 -2.863061 -2.300286
 20
 91.536399
  C 1.214252 -0.356198 0.458014
  C 2.558351 -0.171211 -0.205595
  C 2.644846 -0.188606 -1.519939
  C 4.462551 -0.066869 -1.731507
  C 5.251394 -0.950049 -2.334662
  C 6.692204 -0.949831 -2.218815
  C 7.476908 -1.857029 -2.798787
  C 8.961838 -1.880515 -2.697768
  H 1.312901 -0.316882 1.539729
  H 0.777904 -1.314658 0.183449
  H 0.523174 0.423444 0.141318
  H 3.389757 -0.081488 0.492362
  H 3.265528 -0.001195 -2.396245
  H 4.806079 0.739135 -1.117676
  H 4.821337 -1.741274 -2.937305
  H 7.126938 -0.157178 -1.623002
  H 7.034450 -2.646847 -3.392990
  H 9.327322 -1.059360 -2.085999
  H 9.406120 -1.806517 -3.690519
  H 9.295506 -2.822227 -2.261060
 20
 100.201352
  C 1.078904 -0.303837 0.512657
  C 2.411272 -0.155505 -0.183737
  C 2.441209 -0.227564 -1.494944
  C 4.538378 -0.047986 -1.795913
  C 5.326423 -0.921205 -2.408315
  C 6.766737 -0.945432 -2.261578
  C 7.549580 -1.842534 -2.858793
  C 9.030939 -1.891654 -2.730865
  H 1.202073 -0.220660 1.588963
  H 0.631770 -1.269746 0.286709
  H 0.387032 0.467657 0.178269
  H 3.257322 -0.038938 0.493874
  H 3.399894 -0.020991 -2.179516
  H 4.875535 0.731997 -1.136377
  H 4.899762 -1.684395 -3.046185
  H 7.200321 -0.180931 -1.629584
  H 7.107396 -2.603696 -3.489974
  H 9.397059 -1.099080 -2.082600
  H 9.495541 -1.789536 -3.711531
  H 9.340908 -2.853951 -2.322929
 20
 100.015957
  C 1.003399 -0.311716 0.540577
  C 2.343146 -0.187925 -0.146865
  C 2.386130 -0.207185 -1.457564
  C 4.608115 -0.045694 -1.777201
  C 5.381069 -0.934868 -2.384215
  C 6.822963 -0.964870 -2.258497
  C 7.592873 -1.870278 -2.859876
  C 9.076087 -1.925310 -2.753275
  H 1.126410 -0.274040 1.619537
  H 0.522182 -1.252062 0.275945
  H 0.342504 0.497618 0.234218
  H 3.189856 -0.117328 0.532545
  H 3.474219 -0.034056 -2.069343
  H 4.962342 0.740390 -1.132768
  H 4.940730 -1.702883 -3.006858
  H 7.269132 -0.197384 -1.639364
  H 7.138220 -2.634351 -3.477983
  H 9.455204 -1.128893 -2.117690
  H 9.526653 -1.833682 -3.741742
  H 9.387881 -2.885331 -2.341437
 20
 99.982631
  C 1.027271 -0.322815 0.542862
  C 2.361623 -0.183756 -0.152642
  C 2.393449 -0.207332 -1.464404
  C 4.596634 -0.034362 -1.794658
  C 5.371595 -0.921199 -2.402006
  C 6.811564 -0.961836 -2.258496
  C 7.583071 -1.867003 -2.858569
  C 9.064472 -1.932911 -2.734033
  H 1.155824 -0.278944 1.621007
  H 0.557131 -1.270552 0.285037
  H 0.353626 0.476122 0.237093
  H 3.211466 -0.102415 0.521848
  H 3.459101 -0.020262 -2.084464
  H 4.948378 0.742651 -1.137685
  H 4.934273 -1.680937 -3.036911
  H 7.254960 -0.202816 -1.627051
  H 7.131122 -2.622520 -3.489102
  H 9.440885 -1.144908 -2.086465
  H 9.527910 -1.835291 -3.715969
  H 9.364759 -2.898761 -2.327247
 20
 99.581903
  C 0.888959 -0.309500 0.560369
  C 2.232885 -0.195170 -0.123732
  C 2.294174 -0.162743 -1.432299
  C 4.688284 -0.010719 -1.789467
  C 5.441452 -0.934344 -2.367479
  C 6.884413 -0.959899 -2.283141
  C 7.637491 -1.887517 -2.872373
  C 9.122559 -1.941234 -2.803035
  H 1.013023 -0.311402 1.640034
  H 0.388139 -1.229394 0.262908
  H 0.247873 0.525209 0.281531
  H 3.080679 -0.151070 0.553045
  H 3.557199 -0.035925 -1.923307
  H 5.064658 0.796869 -1.186439
  H 4.983411 -1.724043 -2.946739
  H 7.347674 -0.170491 -1.704231
  H 7.165996 -2.673177 -3.450239
  H 9.518928 -1.122524 -2.207310
  H 9.546922 -1.886650 -3.805545
  H 9.444395 -2.886124 -2.364406
