 23
 0.000000
  C 1.018931 0.108305 0.320052
  C 2.493296 0.124817 0.362161
  C 3.239656 0.602396 1.550775
  C 2.417365 1.080512 2.740135
  H 3.085271 1.399946 3.535540
  C 3.158168 -0.330774 -0.771266
  C 4.541247 -0.395272 -0.932042
  C 5.193214 -0.852335 -2.072885
  C 4.534209 -1.344113 -3.298592
  H 3.457190 -1.324705 -3.249423
  O 6.502705 -0.877001 -2.137169
  H 0.560907 0.474307 1.230498
  H 0.665079 -0.906305 0.131684
  H 0.665652 0.710858 -0.517963
  H 3.899591 1.417569 1.234362
  H 3.899320 -0.205208 1.886583
  H 1.786672 0.286168 3.131787
  H 1.787169 1.925294 2.473196
  H 2.536262 -0.659685 -1.590506
  H 5.161600 -0.065709 -0.110460
  H 4.876037 -2.359116 -3.499199
  H 4.875606 -0.748926 -4.145036
  H 6.959293 -0.555623 -1.337938
 23
 -0.019741
  C 1.015845 -0.001699 0.374868
  C 2.488169 0.078523 0.377435
  C 3.237116 0.622346 1.535974
  C 2.415542 1.175935 2.692664
  H 3.085612 1.573097 3.451092
  C 3.149723 -0.372598 -0.759357
  C 4.532855 -0.461278 -0.910094
  C 5.193273 -0.883871 -2.060548
  C 4.546010 -1.244972 -3.339297
  H 3.470198 -1.138095 -3.318548
  O 6.501028 -0.982489 -2.088777
  H 0.574312 0.242068 1.332942
  H 0.692613 -0.996426 0.067560
  H 0.614879 0.684484 -0.374357
  H 3.905748 1.410359 1.174527
  H 3.888513 -0.170305 1.921531
  H 1.810531 0.403463 3.160863
  H 1.766397 1.984349 2.366221
  H 2.524745 -0.697154 -1.578337
  H 5.150748 -0.207656 -0.059417
  H 4.809713 -2.271234 -3.594736
  H 4.960129 -0.623142 -4.132677
  H 6.950485 -0.751936 -1.254389
 23
 0.286661
  C 1.031192 -0.141025 0.444734
  C 2.495631 0.026710 0.400147
  C 3.239479 0.667697 1.510086
  C 2.405338 1.317549 2.606683
  H 3.065724 1.808576 3.316973
  C 3.147569 -0.417234 -0.744722
  C 4.528127 -0.550234 -0.882978
  C 5.192468 -0.920603 -2.048303
  C 4.559801 -1.069396 -3.376049
  H 3.500413 -0.852084 -3.367028
  O 6.485453 -1.141452 -2.050581
  H 0.622167 0.001368 1.437859
  H 0.746199 -1.121042 0.064612
  H 0.561032 0.588542 -0.219242
  H 3.914717 1.418534 1.089219
  H 3.882569 -0.091967 1.970811
  H 1.819264 0.585520 3.156533
  H 1.735404 2.069406 2.197783
  H 2.517892 -0.726053 -1.566668
  H 5.125078 -0.408092 0.005892
  H 4.728492 -2.081343 -3.744043
  H 5.061207 -0.406550 -4.080844
  H 6.921104 -1.049783 -1.182681
 23
 2.053651
  C 1.073701 -0.335061 0.566608
  C 2.510392 -0.031307 0.430483
  C 3.237283 0.740458 1.464659
  C 2.372918 1.490897 2.470874
  H 3.010452 2.092084 3.113853
  C 3.142990 -0.442407 -0.738000
  C 4.508927 -0.685274 -0.854170
  C 5.180035 -0.997603 -2.031428
  C 4.607063 -0.842165 -3.385674
  H 3.592489 -0.466906 -3.369830
  O 6.421109 -1.423167 -2.020113
  H 0.746511 -0.307141 1.600111
  H 0.837945 -1.301239 0.125571
  H 0.486321 0.407687 0.020248
  H 3.910276 1.445865 0.970820
  H 3.881910 0.045876 2.018898
  H 1.808488 0.815363 3.107959
  H 1.678541 2.157891 1.966970
  H 2.504460 -0.662262 -1.582739
  H 5.065645 -0.703985 0.070413
  H 4.645989 -1.796147 -3.911014
  H 5.236693 -0.159131 -3.955329
  H 6.810047 -1.530276 -1.132352
 23
 8.253300
  C 1.181986 -0.537983 0.717873
  C 2.546551 -0.041935 0.461548
  C 3.216736 0.873817 1.414423
  C 2.282311 1.652747 2.334403
  H 2.863021 2.366524 2.912919
  C 3.162714 -0.380419 -0.750782
  C 4.468380 -0.832375 -0.849895
  C 5.141620 -1.115337 -2.032556
  C 4.707283 -0.641956 -3.366085
  H 3.801239 -0.050383 -3.321431
  O 6.255942 -1.810174 -2.042199
  H 0.993073 -0.630156 1.782924
  H 1.010396 -1.488680 0.219303
  H 0.441588 0.166565 0.328488
  H 3.852409 1.565512 0.857951
  H 3.896835 0.282759 2.043358
  H 1.762843 1.005547 3.034460
  H 1.545151 2.204910 1.758817
  H 2.537209 -0.370391 -1.634658
  H 4.962048 -1.044198 0.088099
  H 4.569729 -1.491830 -4.035109
  H 5.507602 -0.042748 -3.799191
  H 6.552864 -2.115221 -1.165388
 23
 19.285886
  C 1.355536 -0.679782 0.828927
  C 2.620243 -0.005034 0.506555
  C 3.195801 1.017414 1.419428
  C 2.149522 1.804047 2.221521
  H 2.642270 2.616944 2.753765
  C 3.227549 -0.281904 -0.746333
  C 4.397026 -0.989144 -0.870179
  C 5.071137 -1.248510 -2.057553
  C 4.813708 -0.543428 -3.332846
  H 4.046326 0.216394 -3.238143
  O 6.011779 -2.157250 -2.118138
  H 1.263202 -0.816865 1.903382
  H 1.279891 -1.633143 0.312157
  H 0.499412 -0.078099 0.521572
  H 3.826420 1.702672 0.845303
  H 3.866797 0.519614 2.135969
  H 1.644715 1.185360 2.956417
  H 1.402920 2.237836 1.560602
  H 2.671538 0.006388 -1.627624
  H 4.820344 -1.370989 0.050527
  H 4.544470 -1.254735 -4.112269
  H 5.742618 -0.076876 -3.657310
  H 6.160388 -2.633539 -1.281138
 23
 23.142282
  C 1.605716 -0.842940 0.970503
  C 2.695274 0.041670 0.545554
  C 3.111742 1.195923 1.373442
  C 1.984260 1.928421 2.104742
  H 2.386683 2.788157 2.627629
  C 3.322405 -0.122769 -0.729081
  C 4.204923 -1.148921 -0.930660
  C 4.922817 -1.411089 -2.097829
  C 4.973239 -0.504199 -3.269292
  H 4.340017 0.361785 -3.146872
  O 5.704688 -2.469067 -2.192192
  H 1.557954 -0.951228 2.050898
  H 1.655562 -1.814161 0.485093
  H 0.663023 -0.374911 0.668031
  H 3.676162 1.899995 0.755683
  H 3.813073 0.806688 2.121148
  H 1.488254 1.287511 2.827936
  H 1.241121 2.284633 1.394854
  H 3.058620 0.570157 -1.513315
  H 4.475837 -1.675998 -0.032412
  H 4.700639 -1.047072 -4.178359
  H 6.008507 -0.177742 -3.410417
  H 5.655874 -3.070403 -1.430190
 23
 29.841628
  C 1.749948 -0.865064 1.113979
  C 2.730789 0.039134 0.498190
  C 3.100761 1.293396 1.194919
  C 1.986671 1.948832 2.016024
  H 2.338084 2.898183 2.402628
  C 3.118754 -0.104030 -0.866913
  C 4.022198 -1.129225 -1.008573
  C 4.827190 -1.472726 -2.092429
  C 5.237968 -0.493629 -3.125546
  H 4.732126 0.455880 -3.000472
  O 5.421098 -2.644312 -2.167555
  H 1.936957 -1.030276 2.169174
  H 1.694514 -1.827678 0.590963
  H 0.777709 -0.383937 1.028649
  H 3.513992 2.013025 0.478873
  H 3.907710 1.037905 1.893531
  H 1.687322 1.332840 2.859459
  H 1.116677 2.135165 1.393610
  H 2.669726 0.464888 -1.662888
  H 4.194854 -1.553075 -0.011738
  H 5.041601 -0.893856 -4.117686
  H 6.316794 -0.350419 -3.067268
  H 5.116288 -3.296905 -1.509284
 23
 48.305521
  C 1.781686 -0.892693 1.115149
  C 2.708250 0.027609 0.426852
  C 3.106435 1.298346 1.100250
  C 2.048496 1.875128 2.058614
  H 2.397992 2.833024 2.435097
  C 2.888624 -0.067391 -1.016543
  C 3.928665 -0.937946 -1.079029
  C 4.817780 -1.432250 -2.047194
  C 5.368725 -0.551832 -3.103711
  H 4.854232 0.397023 -3.137464
  O 5.345675 -2.632228 -1.975274
  H 1.968391 -0.944139 2.175531
  H 1.806003 -1.893038 0.692481
  H 0.768926 -0.507834 0.965954
  H 3.337599 2.041275 0.334427
  H 4.022579 1.131083 1.676400
  H 1.873772 1.225675 2.910832
  H 1.107551 2.037364 1.539172
  H 2.267100 0.345604 -1.788680
  H 4.120183 -1.092251 0.024887
  H 5.291074 -1.050661 -4.073131
  H 6.431936 -0.392295 -2.923313
  H 4.970964 -3.206569 -1.280434
 23
 60.985301
  C 1.804652 -0.953852 1.161413
  C 2.728580 -0.068140 0.392730
  C 3.175162 1.249915 0.981755
  C 2.162560 1.845888 1.964657
  H 2.501488 2.835635 2.258602
  C 2.658592 -0.135611 -1.095932
  C 3.747794 -0.884963 -1.215822
  C 4.766492 -1.369104 -2.013549
  C 5.435797 -0.463676 -2.983535
  H 4.946344 0.501815 -3.032354
  O 5.332305 -2.552260 -1.859840
  H 2.074075 -0.998828 2.212297
  H 1.775641 -1.961649 0.755852
  H 0.794603 -0.549171 1.077834
  H 3.342809 1.959944 0.169601
  H 4.122744 1.127328 1.508857
  H 2.067907 1.244355 2.862911
  H 1.184590 1.945644 1.502490
  H 1.921284 0.216784 -1.787360
  H 3.845749 -0.872815 0.115313
  H 5.424253 -0.933839 -3.966558
  H 6.483320 -0.338158 -2.709370
  H 4.870933 -3.157165 -1.253267
 23
 47.495619
  C 1.799165 -0.980931 1.192005
  C 2.841441 -0.136244 0.487556
  C 3.211064 1.255381 1.029864
  C 2.125580 1.840564 1.923442
  H 2.413201 2.850127 2.202451
  C 2.711025 -0.158913 -1.029737
  C 3.761874 -0.842430 -1.399193
  C 4.780028 -1.356315 -2.134662
  C 5.525227 -0.454801 -3.051291
  H 5.112379 0.544734 -3.056165
  O 5.268777 -2.567986 -2.011786
  H 1.989726 -0.996116 2.261694
  H 1.807784 -2.000142 0.824221
  H 0.807330 -0.578354 1.014722
  H 3.367513 1.931989 0.186991
  H 4.142964 1.202501 1.579696
  H 1.999415 1.255466 2.831139
  H 1.175489 1.892190 1.401389
  H 1.873137 0.180668 -1.615090
  H 3.783497 -0.770836 0.459374
  H 5.501104 -0.880313 -4.051462
  H 6.576288 -0.425261 -2.751257
  H 4.735228 -3.193798 -1.486129
 23
 34.280243
  C 1.824576 -1.002001 1.287653
  C 2.947519 -0.207945 0.637943
  C 3.208119 1.224450 1.131603
  C 2.008784 1.869515 1.818007
  H 2.237254 2.910487 2.034363
  C 2.831355 -0.221194 -0.896228
  C 3.781772 -0.828106 -1.501512
  C 4.757752 -1.346271 -2.290860
  C 5.616836 -0.418393 -3.068283
  H 5.323053 0.616624 -2.933460
  O 5.070098 -2.615054 -2.366495
  H 1.935185 -0.966921 2.370052
  H 1.857146 -2.042043 0.974877
  H 0.846631 -0.600786 1.026679
  H 3.490074 1.855777 0.283486
  H 4.058187 1.204635 1.813848
  H 1.771973 1.370532 2.754523
  H 1.127361 1.852236 1.181516
  H 1.956893 0.221348 -1.343946
  H 3.868298 -0.793681 0.753930
  H 5.561104 -0.682614 -4.123853
  H 6.656447 -0.558292 -2.770808
  H 4.488345 -3.232585 -1.882615
 23
 27.891566
  C 1.779507 -1.023264 1.440743
  C 3.009971 -0.381670 0.823684
  C 3.261025 1.071035 1.246849
  C 2.001726 1.898991 1.471639
  H 2.276675 2.927130 1.697142
  C 2.872330 -0.382111 -0.702607
  C 3.760736 -0.787482 -1.523594
  C 4.747223 -1.207056 -2.360126
  C 5.651641 -0.224741 -2.992830
  H 5.401529 0.790855 -2.713858
  O 4.945827 -2.464081 -2.672879
  H 1.848960 -0.964390 2.526595
  H 1.720925 -2.075398 1.168969
  H 0.861435 -0.530787 1.127220
  H 3.875660 1.567475 0.492241
  H 3.852501 1.047319 2.165119
  H 1.414441 1.516435 2.301887
  H 1.373448 1.914706 0.580992
  H 1.921521 0.024007 -1.026711
  H 3.882130 -0.984950 1.074469
  H 5.613519 -0.339419 -4.075926
  H 6.679847 -0.448008 -2.703517
  H 4.337300 -3.106227 -2.258460
 23
 28.681532
  C 1.474734 -0.898566 1.473029
  C 2.839600 -0.591906 0.881443
  C 3.378147 0.807174 1.230483
  C 2.328253 1.906635 1.271573
  H 2.810504 2.860096 1.474471
  C 2.793514 -0.706365 -0.644221
  C 3.779455 -0.902071 -1.431184
  C 4.839846 -1.068103 -2.265511
  C 5.409762 0.096145 -2.976186
  H 4.874726 1.009908 -2.747518
  O 5.397704 -2.226397 -2.510579
  H 1.510733 -0.774194 2.553204
  H 1.195734 -1.929353 1.269818
  H 0.703708 -0.243263 1.078376
  H 4.151743 1.089448 0.515094
  H 3.860685 0.731605 2.208986
  H 1.592533 1.730660 2.051373
  H 1.812336 1.994141 0.317451
  H 1.786804 -0.587415 -1.035689
  H 3.547573 -1.340920 1.243369
  H 5.395939 -0.090613 -4.049683
  H 6.461672 0.200971 -2.703979
  H 5.015275 -2.991716 -2.041123
 23
 31.214027
  C 1.287691 -0.746996 1.316622
  C 2.736148 -0.609454 0.879925
  C 3.385227 0.751656 1.220472
  C 2.410584 1.894858 1.460747
  H 2.973634 2.807354 1.644849
  C 2.865248 -0.856488 -0.621335
  C 3.931870 -0.938829 -1.320817
  C 4.966946 -1.014324 -2.197040
  C 5.249741 0.124151 -3.099066
  H 4.551041 0.939604 -2.954611
  O 5.756643 -2.050436 -2.308585
  H 1.203795 -0.548939 2.381937
  H 0.937865 -1.761720 1.146200
  H 0.636436 -0.056287 0.790536
  H 4.058295 1.052045 0.417686
  H 3.997695 0.610599 2.113352
  H 1.775656 1.712102 2.322511
  H 1.778202 2.068804 0.593419
  H 1.901519 -0.996275 -1.105852
  H 3.307294 -1.406393 1.366870
  H 5.215901 -0.220839 -4.132289
  H 6.269465 0.470574 -2.927880
  H 5.566516 -2.797462 -1.709670
