 23
 0.000000
  H 1.554968 0.152944 0.433634
  C 2.636547 0.138536 0.398187
  C 3.350367 0.616007 1.585210
  C 2.436256 1.072281 2.718670
  C 3.243065 1.555675 3.920496
  C 3.220670 -0.326334 -0.758346
  C 4.596303 -0.411996 -0.971707
  C 5.200534 -0.880341 -2.142017
  C 4.485022 -1.359173 -3.339019
  H 3.406860 -1.323887 -3.251793
  O 6.505244 -0.919383 -2.240120
  H 4.015043 1.442614 1.303437
  H 4.014876 -0.175552 1.954470
  H 1.792798 0.247858 3.031252
  H 1.793226 1.883770 2.373005
  H 3.874924 0.761069 4.310376
  H 2.578586 1.877000 4.718575
  H 3.875333 2.398638 3.651409
  H 2.560794 -0.644592 -1.551461
  H 5.261607 -0.094564 -0.178786
  H 4.807404 -2.377900 -3.557229
  H 4.807978 -0.772496 -4.199793
  H 6.977077 -0.600648 -1.444129
 23
 2.675465
  H 1.535519 0.151821 0.458618
  C 2.615718 0.158050 0.401318
  C 3.334126 0.652470 1.580746
  C 2.427392 1.063679 2.736664
  C 3.237619 1.569805 3.925013
  C 3.192672 -0.309006 -0.758716
  C 4.570039 -0.384534 -0.977507
  C 5.192321 -0.844810 -2.139521
  C 4.499855 -1.339138 -3.342489
  H 3.421932 -1.297553 -3.265484
  O 6.496805 -0.797574 -2.250329
  H 3.961021 1.505887 1.292655
  H 4.041084 -0.109956 1.929528
  H 1.824323 0.209863 3.051918
  H 1.742723 1.847888 2.408419
  H 3.923061 0.805086 4.282269
  H 2.578544 1.840570 4.746225
  H 3.815127 2.451067 3.654617
  H 2.527229 -0.623404 -1.548559
  H 5.239766 -0.050006 -0.198707
  H 4.818037 -2.366913 -3.521696
  H 4.828796 -0.774709 -4.215027
  H 7.039746 -0.893476 -1.447181
 23
 7.532108
  H 1.534116 0.109599 0.469059
  C 2.614440 0.123130 0.410911
  C 3.328501 0.637263 1.582731
  C 2.422635 1.030039 2.745124
  C 3.228432 1.578053 3.917852
  C 3.192751 -0.350825 -0.745359
  C 4.571997 -0.413757 -0.966537
  C 5.196271 -0.864494 -2.127933
  C 4.512808 -1.320433 -3.348047
  H 3.434206 -1.275119 -3.282217
  O 6.514470 -0.779674 -2.221473
  H 3.928906 1.507284 1.285125
  H 4.063049 -0.101166 1.925498
  H 1.852412 0.160762 3.077200
  H 1.708117 1.787408 2.416477
  H 3.941940 0.840620 4.277934
  H 2.569313 1.837971 4.742410
  H 3.774094 2.474054 3.630510
  H 2.528877 -0.678653 -1.531083
  H 5.241330 -0.048728 -0.200242
  H 4.827417 -2.343165 -3.560042
  H 4.857872 -0.731657 -4.200072
  H 7.055226 -1.244087 -1.562091
 23
 11.522306
  H 1.527836 0.168638 0.428000
  C 2.608325 0.156109 0.381008
  C 3.322578 0.619665 1.570913
  C 2.419416 0.976813 2.746337
  C 3.229710 1.455990 3.945958
  C 3.187983 -0.298829 -0.782908
  C 4.568088 -0.381823 -0.995637
  C 5.200086 -0.888741 -2.127340
  C 4.535287 -1.491207 -3.289520
  H 3.455412 -1.487719 -3.212364
  O 6.523652 -0.737234 -2.199454
  H 3.930256 1.494923 1.303861
  H 4.053907 -0.134749 1.885576
  H 1.831599 0.103921 3.036853
  H 1.720380 1.761166 2.450000
  H 3.921523 0.686284 4.280904
  H 2.571111 1.698303 4.775589
  H 3.799983 2.348571 3.699598
  H 2.527382 -0.597440 -1.583193
  H 5.256575 -0.001827 -0.253830
  H 4.887856 -2.515661 -3.419652
  H 4.847516 -0.963728 -4.193341
  H 7.096479 -1.391703 -1.776920
 23
 10.483668
  H 1.505624 0.307563 0.414465
  C 2.586323 0.293520 0.367282
  C 3.304499 0.722384 1.568425
  C 2.407059 1.024803 2.763521
  C 3.222557 1.453931 3.978265
  C 3.167461 -0.128518 -0.807745
  C 4.545469 -0.203272 -1.022817
  C 5.193697 -0.758347 -2.122791
  C 4.566385 -1.514819 -3.215922
  H 3.488626 -1.561328 -3.121661
  O 6.501021 -0.523695 -2.169927
  H 3.899647 1.613136 1.326256
  H 4.047652 -0.033060 1.850178
  H 1.826114 0.136536 3.019123
  H 1.701669 1.817346 2.506665
  H 3.921312 0.674430 4.272986
  H 2.568009 1.653597 4.822777
  H 3.786015 2.360244 3.768790
  H 2.511842 -0.410570 -1.618829
  H 5.265709 0.195795 -0.321064
  H 4.964023 -2.529958 -3.257895
  H 4.839653 -1.052146 -4.166040
  H 7.111653 -1.266766 -2.042392
 23
 12.324665
  H 1.459344 0.499875 0.371638
  C 2.537980 0.447552 0.312649
  C 3.285889 0.771992 1.529413
  C 2.412896 0.989331 2.761561
  C 3.255266 1.313377 3.990456
  C 3.099752 0.065500 -0.882139
  C 4.471270 -0.052364 -1.103795
  C 5.154540 -0.732165 -2.110816
  C 4.626424 -1.701557 -3.077350
  H 3.553379 -1.819465 -2.970585
  O 6.435427 -0.392293 -2.119966
  H 3.892982 1.668446 1.350309
  H 4.013490 -0.020408 1.739586
  H 1.828359 0.088287 2.957741
  H 1.709885 1.805052 2.582731
  H 3.967650 0.517135 4.193755
  H 2.621759 1.429361 4.866120
  H 3.807864 2.239197 3.849480
  H 2.442725 -0.128046 -1.719261
  H 5.281596 0.427258 -0.560570
  H 5.097929 -2.677606 -2.964063
  H 4.856663 -1.354007 -4.085802
  H 7.092957 -1.110290 -2.112168
 23
 26.171739
  H 1.413237 0.601177 0.390949
  C 2.487600 0.526453 0.295734
  C 3.282789 0.787336 1.499309
  C 2.438863 0.955147 2.761764
  C 3.312518 1.234454 3.979855
  C 3.010423 0.192942 -0.926311
  C 4.368602 -0.000043 -1.174464
  C 5.083576 -0.740814 -2.105789
  C 4.677464 -1.808346 -3.017398
  H 3.606721 -1.977072 -2.968235
  O 6.346911 -0.283461 -2.093660
  H 3.868179 1.699425 1.345067
  H 3.996387 -0.028530 1.649213
  H 1.855795 0.049986 2.940173
  H 1.738980 1.782317 2.630110
  H 4.016011 0.421713 4.147379
  H 2.698013 1.331146 4.873179
  H 3.870604 2.156807 3.855371
  H 2.336506 0.075399 -1.765583
  H 5.300605 0.475202 -0.767138
  H 5.191789 -2.743354 -2.798325
  H 4.948586 -1.519747 -4.034838
  H 7.063840 -0.919615 -1.932034
 23
 55.302642
  H 1.339708 0.604177 0.464204
  C 2.406694 0.514822 0.317663
  C 3.262776 0.777668 1.484379
  C 2.466408 0.965056 2.778259
  C 3.387424 1.234155 3.962565
  C 2.873902 0.168816 -0.922282
  C 4.213855 -0.050548 -1.236498
  C 4.995638 -0.749696 -2.112093
  C 4.775633 -1.850990 -3.050550
  H 3.727077 -2.125912 -3.087783
  O 6.248866 -0.175032 -1.998794
  H 3.843547 1.683507 1.307957
  H 3.958619 -0.054894 1.608782
  H 1.874037 0.072196 2.983903
  H 1.779003 1.806126 2.666121
  H 4.080557 0.408112 4.110399
  H 2.805233 1.344216 4.877514
  H 3.955661 2.146563 3.814901
  H 2.165958 0.093945 -1.741861
  H 5.364942 0.452293 -0.922667
  H 5.359861 -2.729185 -2.787069
  H 5.091256 -1.526730 -4.045843
  H 6.980865 -0.752377 -1.716748
 23
 68.372927
  H 1.287189 0.607623 0.481530
  C 2.348689 0.500172 0.313878
  C 3.239383 0.754590 1.468780
  C 2.487250 0.960360 2.781257
  C 3.450457 1.197918 3.939316
  C 2.779571 0.156978 -0.926151
  C 4.100868 -0.087062 -1.284363
  C 4.915410 -0.727906 -2.100596
  C 4.821145 -1.843593 -3.055813
  H 3.790947 -2.172886 -3.146692
  O 6.200806 -0.089165 -1.897631
  H 3.851203 1.640451 1.272179
  H 3.933803 -0.086005 1.571164
  H 1.873925 0.082932 2.996643
  H 1.817817 1.818397 2.691262
  H 4.125045 0.353417 4.061162
  H 2.902538 1.328211 4.869366
  H 4.044854 2.093074 3.770268
  H 2.053409 0.139691 -1.736380
  H 5.486892 0.478893 -1.019409
  H 5.435411 -2.689583 -2.751061
  H 5.174966 -1.501311 -4.028623
  H 6.909978 -0.677808 -1.562414
 23
 58.845457
  H 1.241069 0.630760 0.450821
  C 2.299555 0.501286 0.282671
  C 3.198429 0.745521 1.440027
  C 2.445383 0.972055 2.748509
  C 3.407111 1.202431 3.909203
  C 2.722776 0.138987 -0.954360
  C 4.031940 -0.102682 -1.319427
  C 4.899120 -0.730923 -2.058381
  C 4.905845 -1.913872 -2.938007
  H 3.900527 -2.310326 -3.033966
  O 6.208889 -0.024462 -1.885476
  H 3.823756 1.620745 1.238616
  H 3.876261 -0.106401 1.553384
  H 1.817943 0.105388 2.967008
  H 1.789342 1.839700 2.649334
  H 4.066745 0.347635 4.040142
  H 2.857042 1.348446 4.835900
  H 4.016438 2.086669 3.736061
  H 1.990963 0.115033 -1.759946
  H 5.725347 0.558788 -1.172003
  H 5.557302 -2.698684 -2.556116
  H 5.268082 -1.616918 -3.921775
  H 6.926415 -0.588299 -1.513556
 23
 49.571232
  H 1.197446 0.575382 0.376192
  C 2.262206 0.486060 0.221096
  C 3.138979 0.777340 1.385501
  C 2.359773 0.992867 2.679795
  C 3.293894 1.258912 3.854258
  C 2.714851 0.116013 -1.007954
  C 4.028021 -0.092383 -1.350793
  C 4.969097 -0.714407 -1.989828
  C 5.047480 -1.997324 -2.726805
  H 4.061803 -2.445558 -2.793538
  O 6.292229 0.004180 -1.938415
  H 3.737387 1.670013 1.179325
  H 3.842224 -0.049941 1.523642
  H 1.757305 0.107924 2.894278
  H 1.676691 1.837198 2.562991
  H 3.980326 0.427775 3.996429
  H 2.725669 1.389609 4.771796
  H 3.876733 2.162459 3.686233
  H 1.993425 0.048580 -1.819220
  H 6.028137 0.716939 -1.312692
  H 5.716603 -2.703385 -2.239857
  H 5.415523 -1.801374 -3.732885
  H 7.015415 -0.556764 -1.569164
 23
 49.818047
  H 1.240074 0.484647 0.535905
  C 2.299924 0.415223 0.341894
  C 3.209343 0.700104 1.486813
  C 2.454722 0.980864 2.784266
  C 3.411974 1.261189 3.937359
  C 2.715372 0.078527 -0.899073
  C 4.034078 -0.059594 -1.295131
  C 4.914349 -0.638882 -2.050163
  C 4.799469 -1.774825 -3.009859
  H 3.760796 -2.068143 -3.115707
  O 6.317375 -0.167472 -1.990286
  H 3.835717 1.564270 1.248293
  H 3.878059 -0.152662 1.636361
  H 1.827155 0.123134 3.036767
  H 1.797659 1.842591 2.645833
  H 4.061778 0.407214 4.115254
  H 2.858835 1.461251 4.851989
  H 4.031784 2.128494 3.720733
  H 1.964356 -0.044020 -1.678444
  H 6.368185 0.610530 -1.388747
  H 5.369441 -2.640730 -2.679266
  H 5.175772 -1.450575 -3.978126
  H 6.911590 -0.887056 -1.670192
