 9
 0.000000
  C 0.958399 -0.016214 -0.003982
  C 2.457015 0.005741 0.016631
  C 3.162558 0.808008 0.791183
  H 4.235439 0.818448 0.801314
  H 0.599638 -0.753465 -0.720012
  H 0.561339 0.955269 -0.294838
  H 0.560607 -0.279501 0.975439
  H 2.959588 -0.682147 -0.649457
  H 2.656892 1.495949 1.453547
 9
 1.305501
  C 0.986837 -0.004360 -0.012186
  C 2.480837 -0.008629 -0.039447
  C 3.132614 0.778836 0.787299
  H 4.198868 0.845877 0.852722
  H 0.552555 -0.775350 -0.645846
  H 0.601555 0.966459 -0.333219
  H 0.679311 -0.153687 1.026381
  H 2.984591 -0.683353 -0.720612
  H 2.534755 1.386051 1.454319
 9
 4.149915
  C 1.004117 0.010701 -0.014193
  C 2.496402 -0.004068 -0.091215
  C 3.114943 0.748270 0.796186
  H 4.178227 0.863872 0.905004
  H 0.519819 -0.814495 -0.536097
  H 0.618313 0.951894 -0.419195
  H 0.785847 0.003500 1.056577
  H 2.995706 -0.649225 -0.795955
  H 2.435237 1.246479 1.479351
 9
 8.688158
  C 1.017293 0.026737 -0.013751
  C 2.506238 0.002500 -0.129913
  C 3.099451 0.714903 0.810299
  H 4.149808 0.862547 0.959417
  H 0.505676 -0.837723 -0.415135
  H 0.620374 0.921000 -0.498195
  H 0.889645 0.147726 1.069003
  H 3.004743 -0.602531 -0.872992
  H 2.349125 1.129141 1.491573
 9
 14.936797
  C 1.024425 0.044144 -0.014473
  C 2.511397 0.015240 -0.155291
  C 3.087145 0.683805 0.828471
  H 4.131296 0.847450 1.010773
  H 0.498710 -0.863192 -0.300971
  H 0.607007 0.878304 -0.573650
  H 0.981675 0.284129 1.070379
  H 3.008609 -0.540996 -0.936102
  H 2.283946 1.025380 1.497046
 9
 24.393184
  C 1.033111 0.056748 -0.010626
  C 2.514592 0.020279 -0.170056
  C 3.077796 0.661701 0.841728
  H 4.114958 0.837712 1.046286
  H 0.502035 -0.866469 -0.224983
  H 0.593834 0.854144 -0.606516
  H 1.068281 0.365406 1.072807
  H 3.009121 -0.505371 -0.974172
  H 2.211764 0.960995 1.481131
 9
 35.450129
  C 1.034819 0.066080 -0.006921
  C 2.517089 0.027139 -0.179331
  C 3.078451 0.641332 0.854119
  H 4.110416 0.825595 1.080874
  H 0.505507 -0.868771 -0.157154
  H 0.579684 0.828704 -0.635266
  H 1.133338 0.433642 1.075603
  H 3.006494 -0.466408 -1.005774
  H 2.149694 0.910614 1.460622
 9
 47.307256
  C 1.035454 0.073812 -0.009266
  C 2.514718 0.036458 -0.180103
  C 3.079244 0.629075 0.864892
  H 4.111669 0.804098 1.099311
  H 0.512903 -0.873797 -0.104677
  H 0.563666 0.801897 -0.662302
  H 1.182782 0.495469 1.083479
  H 3.003855 -0.427431 -1.025613
  H 2.099059 0.873335 1.453157
 9
 59.156747
  C 1.035905 0.081671 -0.012918
  C 2.512277 0.052147 -0.182233
  C 3.084931 0.614228 0.874692
  H 4.119024 0.784042 1.111598
  H 0.530184 -0.878573 -0.073944
  H 0.542400 0.781613 -0.676575
  H 1.215512 0.536575 1.101595
  H 2.996859 -0.403815 -1.036399
  H 2.053203 0.860075 1.446064
 9
 68.976952
  C 1.030674 0.084957 -0.021960
  C 2.510499 0.057096 -0.177578
  C 3.093000 0.602444 0.882067
  H 4.129586 0.766578 1.113230
  H 0.535866 -0.882891 -0.036518
  H 0.527982 0.759982 -0.706440
  H 1.232889 0.579010 1.121507
  H 2.994212 -0.366806 -1.046805
  H 2.019828 0.841402 1.459727
 9
 79.004998
  C 1.029203 0.084728 -0.030459
  C 2.507415 0.067759 -0.173776
  C 3.103989 0.594532 0.883297
  H 4.143308 0.748826 1.108115
  H 0.547425 -0.889434 -0.022121
  H 0.518088 0.743997 -0.721529
  H 1.237712 0.611630 1.155411
  H 2.986651 -0.344952 -1.051370
  H 1.982509 0.841691 1.478463
 9
 89.610778
  C 1.024485 0.078780 -0.050147
  C 2.502939 0.075635 -0.165086
  C 3.124249 0.594790 0.876571
  H 4.167973 0.735709 1.087615
  H 0.552939 -0.898753 -0.025246
  H 0.510044 0.732112 -0.746141
  H 1.230684 0.646118 1.213434
  H 2.977518 -0.330795 -1.045752
  H 1.941342 0.843669 1.527303
 9
 99.982819
  C 1.023711 0.067035 -0.073560
  C 2.492552 0.087407 -0.150152
  C 3.150537 0.588088 0.868948
  H 4.199636 0.715247 1.058576
  H 0.563885 -0.914763 -0.038528
  H 0.508267 0.717533 -0.769357
  H 1.207374 0.683484 1.291270
  H 2.960151 -0.311237 -1.040836
  H 1.890694 0.865299 1.592257
 9
 109.002504
  C 1.019576 0.049717 -0.105492
  C 2.481842 0.103516 -0.132040
  C 3.183667 0.589324 0.854949
  H 4.238785 0.692325 1.017918
  H 0.570885 -0.935289 -0.065600
  H 0.504485 0.705930 -0.797422
  H 1.166550 0.725729 1.396190
  H 2.941140 -0.294109 -1.026318
  H 1.833396 0.892457 1.692408
