 17
 0.000000
  H 1.473156 0.164573 0.459272
  C 2.554172 0.152684 0.430211
  C 3.271350 0.627941 1.613637
  C 2.366338 1.083729 2.747898
  H 2.958235 1.422642 3.593218
  C 3.141557 -0.313666 -0.730003
  C 4.523680 -0.395837 -0.933348
  C 5.126066 -0.858476 -2.087568
  H 4.602884 -1.212150 -2.968507
  O 6.410253 -0.919505 -2.242419
  H 3.939321 1.450163 1.327002
  H 3.938682 -0.164552 1.975495
  H 1.726472 0.271612 3.084879
  H 1.727395 1.904073 2.429667
  H 2.493192 -0.635442 -1.532922
  H 5.176059 -0.074658 -0.130973
  H 6.938364 -0.610248 -1.476542
 17
 0.621200
  H 1.488088 0.158826 0.451491
  C 2.569922 0.149059 0.430115
  C 3.254642 0.767200 1.566301
  C 2.346589 1.067664 2.748917
  H 2.908635 1.543187 3.547957
  C 3.185084 -0.374446 -0.683548
  C 4.568165 -0.559655 -0.832564
  C 5.143385 -0.747005 -2.073985
  H 4.537427 -0.694822 -2.973567
  O 6.401098 -0.910362 -2.314003
  H 3.713965 1.704756 1.222573
  H 4.103282 0.150449 1.882367
  H 1.907575 0.152179 3.138148
  H 1.536409 1.734592 2.463539
  H 2.558460 -0.655237 -1.519665
  H 5.198231 -0.555587 0.046111
  H 6.974543 -0.980804 -1.521872
 17
 5.669437
  H 1.446991 0.087546 0.476616
  C 2.526834 0.058997 0.429348
  C 3.258420 0.779245 1.477907
  C 2.405880 1.137211 2.685283
  H 2.995382 1.683196 3.416394
  C 3.121220 -0.556704 -0.633262
  C 4.515261 -0.763783 -0.786306
  C 5.154519 -0.528512 -1.981158
  H 4.609421 -0.107472 -2.819772
  O 6.421875 -0.655622 -2.209224
  H 3.668050 1.704068 1.050583
  H 4.140825 0.200401 1.773958
  H 2.014942 0.239624 3.158513
  H 1.562328 1.761749 2.400575
  H 2.488584 -0.895270 -1.445882
  H 5.083757 -1.117788 0.064857
  H 6.941383 -1.046304 -1.476168
 17
 13.399277
  H 1.417592 0.030112 0.492832
  C 2.494333 -0.008286 0.412503
  C 3.272931 0.778051 1.388335
  C 2.465944 1.197083 2.604698
  H 3.077856 1.792406 3.277312
  C 3.060872 -0.711304 -0.590380
  C 4.471803 -0.907447 -0.789713
  C 5.162231 -0.318882 -1.815811
  H 4.666222 0.363396 -2.497316
  O 6.432929 -0.441841 -2.050742
  H 3.656887 1.681432 0.897510
  H 4.167471 0.210200 1.671246
  H 2.105702 0.324587 3.144741
  H 1.602686 1.794627 2.319488
  H 2.414265 -1.182406 -1.325838
  H 4.985212 -1.575047 -0.106223
  H 6.910125 -1.052902 -1.452576
 17
 15.795963
  H 1.423564 0.017485 0.477432
  C 2.499047 -0.032875 0.391202
  C 3.281317 0.765319 1.364530
  C 2.469106 1.252515 2.549353
  H 3.080730 1.872092 3.199935
  C 3.060189 -0.815980 -0.545711
  C 4.459898 -0.989651 -0.842467
  C 5.177352 -0.182030 -1.679312
  H 4.692295 0.626095 -2.216705
  O 6.438919 -0.301829 -1.973676
  H 3.665365 1.630676 0.803470
  H 4.164249 0.222724 1.708619
  H 2.106900 0.412607 3.139488
  H 1.609354 1.833964 2.225187
  H 2.409436 -1.475700 -1.118402
  H 4.924492 -1.874024 -0.416373
  H 6.911820 -1.009827 -1.491365
 17
 8.641641
  H 1.432479 -0.087128 0.504687
  C 2.506450 -0.121100 0.385354
  C 3.293418 0.744891 1.280919
  C 2.501120 1.311210 2.447525
  H 3.119806 1.981795 3.037500
  C 3.050403 -0.977597 -0.518327
  C 4.420539 -1.085084 -0.890636
  C 5.161390 -0.062813 -1.427991
  H 4.691083 0.876225 -1.698319
  O 6.411745 -0.124245 -1.770409
  H 3.658131 1.578065 0.660388
  H 4.191659 0.238215 1.639174
  H 2.160820 0.511846 3.102128
  H 1.628948 1.860866 2.102833
  H 2.399980 -1.727103 -0.960511
  H 4.858466 -2.074876 -0.818403
  H 6.872548 -0.947583 -1.510462
 17
 4.108782
  H 1.470002 -0.201650 0.600010
  C 2.538746 -0.178787 0.430054
  C 3.288660 0.778362 1.254176
  C 2.478324 1.371660 2.398074
  H 3.068549 2.102993 2.941591
  C 3.068677 -1.066292 -0.470493
  C 4.388559 -1.127549 -0.958732
  C 5.208538 -0.039449 -1.169194
  H 4.829488 0.972034 -1.073949
  O 6.429081 -0.079782 -1.595448
  H 3.608264 1.603494 0.601003
  H 4.215252 0.333830 1.627604
  H 2.179703 0.595882 3.098551
  H 1.579921 1.861150 2.031788
  H 2.415548 -1.859637 -0.812682
  H 4.739542 -2.101713 -1.274594
  H 6.817568 -0.975652 -1.669700
 17
 3.514232
  H 1.454455 -0.054658 0.433699
  C 2.531661 -0.099937 0.333590
  C 3.264554 0.879389 1.144078
  C 2.507981 1.311002 2.398946
  H 3.074844 2.063916 2.938451
  C 3.067851 -1.083957 -0.462656
  C 4.383016 -1.183510 -0.949211
  C 5.223432 -0.098020 -1.091487
  H 4.842882 0.906283 -0.937643
  O 6.454695 -0.093849 -1.479234
  H 3.381277 1.781614 0.524359
  H 4.267028 0.530831 1.396835
  H 2.359768 0.461528 3.060983
  H 1.534865 1.726740 2.151740
  H 2.408152 -1.899991 -0.732961
  H 4.706324 -2.150625 -1.310853
  H 6.848809 -0.976708 -1.639458
 17
 6.525322
  H 1.491106 0.117745 0.256661
  C 2.557534 -0.068340 0.266038
  C 3.321297 0.811966 1.163593
  C 2.504539 1.279401 2.368036
  H 3.108938 1.922210 3.001170
  C 3.082275 -1.124725 -0.438060
  C 4.402169 -1.217129 -0.910835
  C 5.130599 -0.079875 -1.196009
  H 4.602276 0.864842 -1.283426
  O 6.377678 0.031079 -1.511383
  H 3.591687 1.716525 0.599679
  H 4.253161 0.343988 1.482970
  H 2.182382 0.427170 2.961068
  H 1.623797 1.835047 2.057419
  H 2.433634 -1.973177 -0.624911
  H 4.798523 -2.193120 -1.153816
  H 6.896971 -0.798701 -1.474363
 17
 14.975281
  H 1.623229 0.322652 0.045912
  C 2.645142 -0.003844 0.198471
  C 3.391844 0.762797 1.210213
  C 2.477244 1.246704 2.338652
  H 3.061815 1.785337 3.078575
  C 3.114315 -1.168291 -0.388377
  C 4.399755 -1.250755 -0.919307
  C 5.023184 -0.070644 -1.300545
  H 4.391289 0.758004 -1.607540
  O 6.277451 0.169808 -1.480629
  H 3.815072 1.663557 0.744758
  H 4.223762 0.180636 1.606976
  H 1.999636 0.403618 2.830757
  H 1.704194 1.911372 1.963020
  H 2.474922 -2.043736 -0.391478
  H 4.859838 -2.208963 -1.112042
  H 6.884860 -0.567660 -1.263972
 17
 27.263589
  H 1.847425 0.475434 -0.144462
  C 2.799696 0.040612 0.141466
  C 3.481505 0.712068 1.259962
  C 2.461786 1.243918 2.275397
  H 2.986368 1.706726 3.105897
  C 3.157599 -1.244273 -0.333369
  C 4.370612 -1.321811 -0.961441
  C 4.886511 -0.070834 -1.356891
  H 4.204274 0.640681 -1.812786
  O 6.112803 0.316803 -1.390733
  H 4.036867 1.585844 0.895937
  H 4.194820 0.043449 1.742807
  H 1.851202 0.433887 2.664917
  H 1.808206 1.986237 1.825660
  H 2.517732 -2.097943 -0.154681
  H 4.886906 -2.245369 -1.173085
  H 6.775666 -0.323584 -1.055396
 17
 33.699919
  H 2.106895 0.593150 -0.315355
  C 2.970554 0.053351 0.062558
  C 3.597564 0.622408 1.269906
  C 2.538345 1.253432 2.186410
  H 3.018815 1.635028 3.082305
  C 3.154809 -1.333363 -0.334544
  C 4.296473 -1.398812 -1.038919
  C 4.695084 -0.039223 -1.312230
  H 4.015304 0.615127 -1.851234
  O 5.872389 0.469496 -1.173238
  H 4.282490 1.432607 0.993202
  H 4.171516 -0.132224 1.809507
  H 1.798489 0.514417 2.481232
  H 2.029885 2.076757 1.692554
  H 2.488877 -2.135376 -0.059724
  H 4.862326 -2.270839 -1.320661
  H 6.548214 -0.123113 -0.783345
 17
 30.607185
  H 2.284791 0.650565 -0.396398
  C 3.105981 0.069032 0.015189
  C 3.656823 0.590462 1.293179
  C 2.553832 1.256394 2.127520
  H 2.974708 1.602828 3.066764
  C 3.152075 -1.374971 -0.290209
  C 4.234479 -1.427383 -1.074529
  C 4.526644 0.000721 -1.233928
  H 3.906884 0.599475 -1.903423
  O 5.683628 0.571282 -1.018188
  H 4.399977 1.367166 1.086954
  H 4.144479 -0.201340 1.863813
  H 1.759056 0.547725 2.343098
  H 2.126072 2.110967 1.610061
  H 2.492851 -2.143336 0.071781
  H 4.830843 -2.259218 -1.405244
  H 6.357746 -0.005480 -0.609176
 17
 27.315169
  H 2.428445 0.665654 -0.380996
  C 3.262876 0.073859 0.000960
  C 3.699167 0.551070 1.355564
  C 2.545669 1.256533 2.074869
  H 2.871729 1.550924 3.068499
  C 3.196192 -1.386556 -0.236566
  C 4.178991 -1.416196 -1.156647
  C 4.424767 0.048371 -1.235314
  H 3.929374 0.559989 -2.067167
  O 5.628829 0.591782 -1.059522
  H 4.500667 1.286364 1.242066
  H 4.078661 -0.273946 1.959763
  H 1.691964 0.590770 2.166989
  H 2.230605 2.153054 1.546046
  H 2.605837 -2.147826 0.236237
  H 4.782816 -2.215474 -1.550898
  H 6.264168 0.019952 -0.590401
 17
 29.945599
  H 2.413524 0.643918 -0.363776
  C 3.267224 0.040539 -0.038892
  C 3.739425 0.470840 1.331895
  C 2.626937 1.246696 2.046257
  H 2.935945 1.453083 3.067377
  C 3.155869 -1.424981 -0.277029
  C 4.222633 -1.419024 -1.100916
  C 4.397127 0.064010 -1.240994
  H 3.879283 0.476196 -2.111082
  O 5.586119 0.665953 -1.137744
  H 4.596712 1.138885 1.231695
  H 4.036961 -0.388113 1.933268
  H 1.708151 0.667642 2.076059
  H 2.428315 2.197290 1.557298
  H 2.420054 -2.146835 0.013711
  H 4.981341 -2.157926 -1.307135
  H 6.212872 0.213175 -0.544490
