 17
 0.000000
  C 0.974105 0.134780 0.386143
  C 2.429761 0.084503 0.264082
  H 3.027629 0.420909 1.101864
  C 3.067366 -0.370038 -0.866750
  C 4.459962 -0.410310 -0.969172
  C 5.191718 -0.852900 -2.074708
  C 4.609761 -1.357195 -3.331528
  H 3.527942 -1.357769 -3.332420
  O 6.498060 -0.843460 -2.054591
  H 0.653061 0.521385 1.347703
  H 0.546823 -0.859341 0.232870
  H 0.548605 0.747665 -0.412426
  H 2.459039 -0.703397 -1.696059
  H 5.027808 -0.066203 -0.113150
  H 4.980617 -2.365462 -3.515906
  H 4.980407 -0.755916 -4.161720
  H 6.897092 -0.511960 -1.226955
 17
 1.802939
  C 0.967773 0.108560 0.393846
  C 2.424176 0.143497 0.242163
  H 3.010914 0.619440 1.016725
  C 3.071708 -0.399866 -0.841258
  C 4.462030 -0.369197 -0.969366
  C 5.193417 -0.833211 -2.065036
  C 4.607373 -1.262475 -3.348097
  H 3.532042 -1.142393 -3.391988
  O 6.502747 -0.820537 -2.050443
  H 0.632928 0.601737 1.301209
  H 0.613420 -0.926223 0.390626
  H 0.484184 0.567809 -0.472681
  H 2.475634 -0.877830 -1.604906
  H 5.023458 0.097619 -0.168896
  H 4.873332 -2.306167 -3.523390
  H 5.074482 -0.702970 -4.159359
  H 6.920998 -0.869925 -1.170970
 17
 7.381791
  C 0.949875 0.116417 0.393853
  C 2.402002 0.161032 0.243314
  H 2.985629 0.639400 1.018358
  C 3.055397 -0.379414 -0.839111
  C 4.446369 -0.333682 -0.963627
  C 5.189430 -0.789065 -2.051938
  C 4.621651 -1.253533 -3.327581
  H 3.541123 -1.212654 -3.360021
  O 6.508210 -0.681615 -2.034850
  H 0.610284 0.613579 1.295682
  H 0.604329 -0.920684 0.398614
  H 0.463628 0.561003 -0.477865
  H 2.464395 -0.859772 -1.605453
  H 5.002885 0.145506 -0.169009
  H 4.964479 -2.272573 -3.514510
  H 5.036712 -0.658274 -4.142732
  H 6.994182 -1.126411 -1.321180
 17
 11.493102
  C 0.926368 0.125791 0.395556
  C 2.379655 0.151065 0.267556
  H 2.962373 0.558978 1.082669
  C 3.038470 -0.322930 -0.843541
  C 4.431635 -0.289147 -0.947709
  C 5.189178 -0.733505 -2.029732
  C 4.643753 -1.289372 -3.277504
  H 3.563161 -1.341099 -3.288836
  O 6.506028 -0.552662 -1.979055
  H 0.583150 0.566272 1.325040
  H 0.561428 -0.902385 0.323820
  H 0.461009 0.637796 -0.450328
  H 2.449343 -0.732456 -1.651478
  H 4.989352 0.130151 -0.119542
  H 5.062080 -2.282176 -3.450075
  H 4.990471 -0.681445 -4.115697
  H 7.085251 -1.230787 -1.602503
 17
 7.705480
  C 0.908082 0.111335 0.381669
  C 2.364704 0.117036 0.278752
  H 2.940794 0.468957 1.123952
  C 3.034156 -0.305354 -0.845705
  C 4.427423 -0.285034 -0.926175
  C 5.201352 -0.729881 -1.996009
  C 4.676549 -1.344097 -3.229956
  H 3.598468 -1.438231 -3.231825
  O 6.506985 -0.508225 -1.902917
  H 0.556634 0.510210 1.326679
  H 0.528052 -0.905674 0.252400
  H 0.465348 0.673024 -0.444340
  H 2.452391 -0.659326 -1.684699
  H 4.983589 0.087952 -0.073877
  H 5.121484 -2.326464 -3.394297
  H 4.992153 -0.732491 -4.077837
  H 7.104073 -1.272787 -1.964582
 17
 2.100500
  C 0.886976 0.125941 0.372496
  C 2.348039 0.101910 0.294727
  H 2.915767 0.414615 1.160515
  C 3.027397 -0.304669 -0.827870
  C 4.420103 -0.320142 -0.886464
  C 5.206009 -0.759521 -1.964719
  C 4.703139 -1.362910 -3.211702
  H 3.625979 -1.454643 -3.224574
  O 6.481910 -0.569606 -1.792497
  H 0.529696 0.505756 1.323304
  H 0.486532 -0.878304 0.211634
  H 0.472075 0.724115 -0.441954
  H 2.451443 -0.615271 -1.688221
  H 4.987275 0.016114 -0.017607
  H 5.141743 -2.349645 -3.359704
  H 5.021074 -0.753779 -4.059052
  H 7.164183 -1.056709 -2.291247
 17
 1.329980
  C 0.881952 0.117432 0.359360
  C 2.343119 0.051787 0.304804
  H 2.900330 0.231029 1.214180
  C 3.033415 -0.247991 -0.843506
  C 4.425749 -0.318628 -0.879085
  C 5.210777 -0.771076 -1.950336
  C 4.710067 -1.405741 -3.180364
  H 3.628993 -1.461715 -3.203474
  O 6.485501 -0.631863 -1.737728
  H 0.515944 0.362018 1.350454
  H 0.447770 -0.832338 0.039068
  H 0.511443 0.852438 -0.358882
  H 2.469405 -0.424982 -1.748692
  H 5.008108 0.044741 -0.034690
  H 5.115399 -2.415486 -3.257469
  H 5.058541 -0.858780 -4.057323
  H 7.156640 -0.828700 -2.422132
 17
 3.866260
  C 0.888524 0.102326 0.356948
  C 2.347448 -0.006692 0.306774
  H 2.897665 0.004458 1.237110
  C 3.042151 -0.155769 -0.865110
  C 4.434266 -0.274893 -0.900777
  C 5.208811 -0.757833 -1.961548
  C 4.699939 -1.465629 -3.147794
  H 3.617181 -1.492399 -3.168895
  O 6.490810 -0.638609 -1.743178
  H 0.515676 0.172451 1.372821
  H 0.422779 -0.750860 -0.140552
  H 0.560130 0.973735 -0.214655
  H 2.491625 -0.164045 -1.796066
  H 5.051440 0.102580 -0.083919
  H 5.079408 -2.488579 -3.142808
  H 5.064343 -1.001751 -4.065086
  H 7.150077 -0.700682 -2.460170
 17
 11.878738
  C 0.895273 0.088675 0.346793
  C 2.350670 -0.056091 0.298653
  H 2.873425 -0.288462 1.215563
  C 3.058246 -0.043572 -0.870754
  C 4.446194 -0.259374 -0.913752
  C 5.201582 -0.759236 -1.971574
  C 4.693872 -1.556398 -3.097545
  H 3.610832 -1.624860 -3.075783
  O 6.499339 -0.645849 -1.752632
  H 0.515001 0.045957 1.359505
  H 0.409914 -0.688982 -0.246471
  H 0.597369 1.030788 -0.116782
  H 2.545427 0.200099 -1.795591
  H 5.141657 0.174357 -0.199864
  H 5.121808 -2.559778 -3.043605
  H 5.009475 -1.137361 -4.055572
  H 7.076735 -0.469825 -2.517000
 17
 28.232574
  C 0.881007 0.138300 0.454365
  C 2.311471 -0.140013 0.298360
  H 2.852056 -0.545944 1.146473
  C 2.966449 0.010533 -0.891795
  C 4.325125 -0.283574 -1.051002
  C 5.133125 -0.803091 -2.037812
  C 4.828741 -1.693234 -3.168326
  H 3.756086 -1.833339 -3.271893
  O 6.414287 -0.532007 -1.704513
  H 0.531077 -0.087207 1.455677
  H 0.290920 -0.441141 -0.261962
  H 0.674726 1.183129 0.226597
  H 2.446773 0.467980 -1.722202
  H 5.208314 0.101179 -0.433590
  H 5.309671 -2.663164 -3.020526
  H 5.221183 -1.282589 -4.097029
  H 6.998848 -0.158076 -2.388839
 17
 45.729251
  C 0.888591 0.138869 0.507917
  C 2.285167 -0.224324 0.291010
  H 2.829150 -0.665842 1.108276
  C 2.930785 0.031972 -0.877301
  C 4.267330 -0.291953 -1.130257
  C 5.084903 -0.804816 -2.096397
  C 4.902710 -1.739745 -3.222416
  H 3.835499 -2.020613 -3.315998
  O 6.334176 -0.469679 -1.684711
  H 0.573002 -0.085311 1.515492
  H 0.240193 -0.358848 -0.200660
  H 0.745078 1.196772 0.307464
  H 2.390120 0.583076 -1.657579
  H 5.238975 0.100500 -0.595618
  H 5.476284 -2.632466 -3.044023
  H 5.250801 -1.310491 -4.149513
  H 6.996646 -0.025766 -2.266795
 17
 64.656207
  C 0.882219 0.170866 0.584839
  C 2.259805 -0.238821 0.264165
  H 2.812961 -0.793548 1.007763
  C 2.846275 0.032357 -0.943217
  C 4.130542 -0.332110 -1.275762
  C 5.010891 -0.820929 -2.122398
  C 4.986578 -1.788156 -3.234966
  H 3.964106 -2.072336 -3.461573
  O 6.288321 -0.397164 -1.606399
  H 0.584618 -0.151615 1.577145
  H 0.180583 -0.234670 -0.146213
  H 0.785750 1.256218 0.518863
  H 2.303091 0.643060 -1.658501
  H 5.501630 0.074219 -0.741188
  H 5.558239 -2.678654 -2.977508
  H 5.431680 -1.344714 -4.125036
  H 6.884548 0.073529 -2.229051
 17
 52.747380
  C 0.844059 0.186452 0.602671
  C 2.219861 -0.268792 0.260373
  H 2.744286 -0.856320 0.990881
  C 2.798449 0.038356 -0.944788
  C 4.027010 -0.358689 -1.342324
  C 4.939953 -0.819409 -2.126626
  C 4.994070 -1.797481 -3.215804
  H 3.995360 -2.121712 -3.474400
  O 6.313315 -0.354629 -1.609795
  H 0.537910 -0.163726 1.584719
  H 0.104195 -0.180798 -0.138146
  H 0.786404 1.257617 0.560323
  H 2.258996 0.715670 -1.611225
  H 5.841903 0.041954 -0.834980
  H 5.584252 -2.669053 -2.903183
  H 5.452026 -1.367144 -4.089901
  H 6.880397 0.129193 -2.268400
 17
 43.666432
  C 0.845288 0.216551 0.643977
  C 2.142859 -0.323600 0.185251
  H 2.638898 -1.056804 0.802744
  C 2.715517 0.057169 -1.008476
  C 3.917637 -0.359047 -1.459556
  C 4.931365 -0.814041 -2.109320
  C 5.066210 -1.846472 -3.168036
  H 4.081967 -2.187054 -3.479537
  O 6.275686 -0.358301 -1.624895
  H 0.549590 -0.213058 1.600246
  H 0.062506 0.016881 -0.088278
  H 0.897009 1.302265 0.748943
  H 2.204010 0.801887 -1.608345
  H 6.050032 0.209562 -0.857178
  H 5.634708 -2.697627 -2.789652
  H 5.581157 -1.438529 -4.034704
  H 6.817398 0.087753 -2.322218
 17
 41.407796
  C 0.813825 0.183254 0.607538
  C 2.116087 -0.344696 0.145936
  H 2.576264 -1.144249 0.707404
  C 2.744059 0.137123 -0.982365
  C 3.930959 -0.296522 -1.448845
  C 4.946791 -0.783378 -2.067930
  C 5.029232 -1.866149 -3.086971
  H 4.039392 -2.260365 -3.287019
  O 6.324086 -0.340076 -1.701658
  H 0.474824 -0.324728 1.502806
  H 0.054089 0.069338 -0.168355
  H 0.882617 1.252904 0.816649
  H 2.273633 0.948095 -1.525679
  H 6.321233 0.216998 -0.891745
  H 5.661801 -2.670872 -2.718538
  H 5.443248 -1.489696 -4.019180
  H 6.779697 0.110551 -2.451082
