13

H 3.5872520735210918 -0.597694998209778 -0.9853139162942517
C 4.65711 -0.60561 -1.00085
C 5.377673 -1.120883 -2.012416
C 6.816227 -1.13048 -2.031255
C 7.534752 -1.642156 -3.035768
C 9.024695 -1.661962 -3.074644
H 5.161555 -0.170683 -0.14702
H 4.873695 -1.555889 -2.866409
H 7.322807 -0.696169 -1.178628
H 7.035816 -2.078427 -3.892225
H 9.461483 -1.209128 -2.18566
H 9.382918 -1.116336 -3.949046
H 9.382918 -2.690058 -3.147419
