 13
 0.000000
  H 3.589370 -0.602470 -0.994689
  C 4.663948 -0.608645 -1.006808
  C 5.375506 -1.117942 -2.006642
  C 6.818479 -1.129444 -2.029222
  C 7.534313 -1.639565 -3.030680
  C 9.023461 -1.661955 -3.074631
  H 5.162270 -0.174270 -0.154062
  H 4.871392 -1.552748 -2.860241
  H 7.324994 -0.695494 -1.177303
  H 7.033480 -2.075114 -3.885723
  H 9.461128 -1.209873 -2.187122
  H 9.380281 -1.118294 -3.949980
  H 9.380281 -2.689662 -3.149552
 13
 1.847021
  H 3.637146 -0.571187 -0.933274
  C 4.712403 -0.595008 -0.980039
  C 5.368182 -1.122096 -2.014796
  C 6.805533 -1.171577 -2.111946
  C 7.508854 -1.683544 -3.117026
  C 8.993666 -1.646457 -3.044218
  H 5.239367 -0.168189 -0.142117
  H 4.821125 -1.546359 -2.847691
  H 7.396683 -0.758390 -1.300789
  H 7.044480 -2.125293 -3.984240
  H 9.245610 -1.161341 -2.091855
  H 9.422527 -1.081199 -3.868224
  H 9.422539 -2.645367 -3.071481
 13
 7.081770
  H 3.686030 -0.546391 -0.884589
  C 4.759006 -0.588674 -0.967605
  C 5.365622 -1.125501 -2.021474
  C 6.791901 -1.200842 -2.169382
  C 7.491379 -1.715079 -3.178922
  C 8.965782 -1.630466 -3.012803
  H 5.321345 -0.171341 -0.148318
  H 4.784356 -1.539357 -2.833947
  H 7.463873 -0.810088 -1.402277
  H 7.058904 -2.162817 -4.057905
  H 9.051465 -1.130159 -2.030615
  H 9.440880 -1.038805 -3.791069
  H 9.440854 -2.607842 -2.991813
 13
 15.615369
  H 3.723955 -0.525087 -0.842761
  C 4.793926 -0.582496 -0.955476
  C 5.365285 -1.128746 -2.027859
  C 6.780769 -1.222804 -2.212502
  C 7.481107 -1.737080 -3.222110
  C 8.943602 -1.616780 -2.985918
  H 5.384249 -0.174008 -0.153539
  H 4.759458 -1.533352 -2.822163
  H 7.525560 -0.849636 -1.479917
  H 7.072895 -2.193352 -4.117840
  H 8.893906 -1.108372 -1.987840
  H 9.451321 -1.003157 -3.726493
  H 9.451267 -2.576544 -2.924997
 13
 27.143880
  H 3.755373 -0.507865 -0.808971
  C 4.818933 -0.577650 -0.945963
  C 5.357633 -1.129206 -2.028763
  C 6.771838 -1.238529 -2.243360
  C 7.478705 -1.751823 -3.251032
  C 8.932384 -1.606131 -2.965023
  H 5.434177 -0.175792 -0.157047
  H 4.722416 -1.529948 -2.815487
  H 7.579890 -0.881009 -1.541476
  H 7.095186 -2.208542 -4.147650
  H 8.768256 -1.094358 -1.960313
  H 9.460218 -0.976314 -3.677207
  H 9.460165 -2.552443 -2.874322
 13
 40.322723
  H 3.750512 -0.496634 -0.786875
  C 4.824960 -0.573502 -0.937806
  C 5.349341 -1.128677 -2.027728
  C 6.767525 -1.246146 -2.258370
  C 7.479082 -1.758596 -3.264414
  C 8.931217 -1.601126 -2.955304
  H 5.448378 -0.177307 -0.160037
  H 4.714552 -1.516526 -2.789116
  H 7.643960 -0.902346 -1.583475
  H 7.108580 -2.214084 -4.158618
  H 8.684838 -1.086593 -1.945211
  H 9.470732 -0.960936 -3.651277
  H 9.470942 -2.540783 -2.846658
 13
 53.765599
  H 3.775088 -0.493155 -0.779922
  C 4.836863 -0.571559 -0.934099
  C 5.352830 -1.128050 -2.026656
  C 6.757227 -1.247472 -2.260961
  C 7.477470 -1.757997 -3.263108
  C 8.927563 -1.599443 -2.951875
  H 5.469148 -0.173924 -0.153304
  H 4.696206 -1.524627 -2.805073
  H 7.692308 -0.903500 -1.585679
  H 7.109631 -2.218201 -4.166572
  H 8.627315 -1.066825 -1.906299
  H 9.467367 -0.954695 -3.639058
  H 9.467358 -2.534340 -2.834390
 13
 65.924384
  H 3.761792 -0.490444 -0.774202
  C 4.830960 -0.569182 -0.929693
  C 5.347448 -1.125609 -2.022206
  C 6.754387 -1.245383 -2.256956
  C 7.481341 -1.753355 -3.253892
  C 8.934245 -1.604671 -2.962038
  H 5.457660 -0.175332 -0.155861
  H 4.691725 -1.519971 -2.796024
  H 7.747674 -0.898981 -1.576865
  H 7.111577 -2.212295 -4.154843
  H 8.605048 -1.050411 -1.874071
  H 9.472723 -0.956763 -3.647779
  H 9.472643 -2.540100 -2.841092
 13
 76.527340
  H 3.757688 -0.493586 -0.779351
  C 4.818610 -0.568616 -0.929196
  C 5.340530 -1.124134 -2.020115
  C 6.746619 -1.241929 -2.250526
  C 7.482603 -1.747952 -3.243214
  C 8.941876 -1.613175 -2.978654
  H 5.445809 -0.170713 -0.146268
  H 4.688743 -1.518796 -2.793890
  H 7.797983 -0.883208 -1.546236
  H 7.107860 -2.206065 -4.142463
  H 8.605149 -1.027930 -1.830178
  H 9.475303 -0.962539 -3.665113
  H 9.475533 -2.551062 -2.855766
 13
 87.181957
  H 3.740866 -0.496412 -0.783679
  C 4.806068 -0.568227 -0.929251
  C 5.333942 -1.122464 -2.017751
  C 6.739930 -1.238164 -2.243480
  C 7.489098 -1.737889 -3.223187
  C 8.949126 -1.626197 -3.003872
  H 5.427951 -0.170115 -0.144189
  H 4.684224 -1.518326 -2.793143
  H 7.856985 -0.859426 -1.499901
  H 7.107046 -2.195338 -4.120960
  H 8.620453 -0.999319 -1.774175
  H 9.475432 -0.974681 -3.694053
  H 9.475451 -2.567293 -2.882254
 13
 97.687123
  H 3.723008 -0.502611 -0.791750
  C 4.788336 -0.568143 -0.931833
  C 5.324440 -1.120682 -2.017518
  C 6.729751 -1.233495 -2.235826
  C 7.496449 -1.725819 -3.199011
  C 8.956075 -1.642508 -3.035008
  H 5.403901 -0.170816 -0.142113
  H 4.678307 -1.518758 -2.794631
  H 7.928447 -0.822986 -1.429980
  H 7.105998 -2.182828 -4.095044
  H 8.657204 -0.961711 -1.701147
  H 9.472638 -0.994507 -3.735535
  H 9.471508 -2.589307 -2.921313
 13
 106.313930
  H 3.701711 -0.505371 -0.803191
  C 4.768016 -0.572109 -0.934634
  C 5.311591 -1.123576 -2.017360
  C 6.715404 -1.231001 -2.228522
  C 7.506538 -1.709590 -3.168263
  C 8.962404 -1.664229 -3.079512
  H 5.378228 -0.169203 -0.143650
  H 4.666402 -1.521279 -2.797801
  H 8.011546 -0.776002 -1.335607
  H 7.107942 -2.165816 -4.064044
  H 8.717521 -0.916109 -1.610923
  H 9.465263 -1.016094 -3.784780
  H 9.467455 -2.618665 -2.969751
 13
 113.422740
  H 3.681737 -0.504451 -0.818764
  C 4.748685 -0.579303 -0.938052
  C 5.299542 -1.130699 -2.017228
  C 6.702851 -1.230684 -2.220362
  C 7.517815 -1.692923 -3.135198
  C 8.962510 -1.686263 -3.125337
  H 5.353269 -0.164833 -0.149630
  H 4.655872 -1.525143 -2.801269
  H 8.108629 -0.718837 -1.215198
  H 7.113277 -2.147874 -4.031909
  H 8.802500 -0.862686 -1.501085
  H 9.449367 -1.038577 -3.841302
  H 9.453127 -2.647358 -3.026549
 13
 118.034877
  H 3.665118 -0.518195 -0.818227
  C 4.732285 -0.571574 -0.943045
  C 5.288116 -1.119846 -2.021677
  C 6.691040 -1.220585 -2.214336
  C 7.528530 -1.676936 -3.104946
  C 8.966227 -1.709004 -3.165012
  H 5.333332 -0.173281 -0.143192
  H 4.645419 -1.521570 -2.803141
  H 8.209518 -0.652845 -1.099548
  H 7.120623 -2.134656 -4.001554
  H 8.893382 -0.804835 -1.395400
  H 9.444913 -1.063428 -3.891342
  H 9.441241 -2.673915 -3.067514
