 22
 0.000000
  C 0.976733 0.135141 0.387370
  C 2.443485 0.139580 0.398197
  C 3.219638 0.605936 1.558623
  C 2.453501 1.096620 2.779981
  C 3.414932 1.537987 3.879181
  C 3.083261 -0.325014 -0.758066
  C 4.478924 -0.398614 -0.942807
  C 5.104461 -0.847003 -2.060146
  H 4.636045 -1.208287 -2.959354
  H 6.183280 -0.854473 -2.079930
  H 0.533206 0.503661 1.304145
  H 0.612252 -0.876176 0.193341
  H 0.612021 0.730768 -0.452545
  H 3.888914 1.408883 1.223967
  H 3.888906 -0.205377 1.872511
  H 1.816038 0.301701 3.171973
  H 1.816223 1.941960 2.513155
  H 4.050911 0.715236 4.197503
  H 2.861377 1.886633 4.747195
  H 4.051155 2.352207 3.539992
  H 2.433781 -0.647585 -1.560279
  H 5.109138 -0.070818 -0.127489
 22
 -0.641462
  C 1.008424 0.113098 0.378175
  C 2.474389 0.137227 0.410071
  C 3.228720 0.622832 1.576969
  C 2.441807 1.105348 2.787765
  C 3.382964 1.563016 3.897650
  C 3.142902 -0.308142 -0.733075
  C 4.548655 -0.400634 -0.910671
  C 5.066024 -0.817822 -2.083894
  H 4.434848 -1.007496 -2.935887
  H 6.114786 -1.044139 -2.226974
  H 0.548602 0.456258 1.296036
  H 0.659377 -0.896302 0.148142
  H 0.647815 0.719736 -0.456255
  H 3.891708 1.432307 1.243385
  H 3.917364 -0.169693 1.897762
  H 1.812106 0.301085 3.173369
  H 1.795293 1.940353 2.511086
  H 4.026182 0.749998 4.226460
  H 2.814058 1.906572 4.757823
  H 4.012071 2.385148 3.564076
  H 2.525200 -0.670739 -1.577795
  H 5.214288 -0.163834 -0.093096
 22
 1.041506
  C 1.009126 0.102683 0.377846
  C 2.474422 0.135762 0.410018
  C 3.228318 0.629531 1.573883
  C 2.438860 1.101013 2.787876
  C 3.378621 1.567584 3.895404
  C 3.145621 -0.299476 -0.731225
  C 4.539405 -0.390609 -0.914684
  C 5.044364 -0.844585 -2.089824
  H 4.454458 -0.858633 -2.992418
  H 6.064370 -1.174729 -2.192550
  H 0.548449 0.421001 1.304368
  H 0.666374 -0.902172 0.122806
  H 0.645062 0.732584 -0.437468
  H 3.873937 1.451174 1.235827
  H 3.929360 -0.152553 1.890762
  H 1.821582 0.287413 3.173961
  H 1.781551 1.928552 2.515142
  H 4.034016 0.761906 4.218430
  H 2.808843 1.900762 4.759107
  H 3.995318 2.398884 3.561447
  H 2.569463 -0.721159 -1.545140
  H 5.213441 -0.154545 -0.103414
 22
 4.497242
  C 1.005753 0.122095 0.369834
  C 2.472267 0.156922 0.394316
  C 3.229606 0.637938 1.564291
  C 2.439348 1.080322 2.792324
  C 3.383077 1.538821 3.900800
  C 3.133529 -0.273975 -0.754787
  C 4.523348 -0.331328 -0.944608
  C 5.058124 -0.857907 -2.077006
  H 4.547882 -0.793671 -3.027580
  H 6.017683 -1.348810 -2.088680
  H 0.549888 0.529908 1.263440
  H 0.675752 -0.911806 0.241378
  H 0.626613 0.648123 -0.506839
  H 3.861095 1.477848 1.239013
  H 3.936163 -0.142395 1.864368
  H 1.833585 0.255159 3.167509
  H 1.772317 1.910016 2.537155
  H 4.059414 0.736877 4.189629
  H 2.817590 1.839723 4.777998
  H 3.977586 2.393259 3.585947
  H 2.547504 -0.755325 -1.529100
  H 5.185341 0.010527 -0.163392
 22
 13.184333
  C 1.026056 0.102418 0.367991
  C 2.495288 0.160943 0.401364
  C 3.239520 0.637464 1.578864
  C 2.430573 1.072798 2.800121
  C 3.357865 1.534199 3.915493
  C 3.172978 -0.252520 -0.741336
  C 4.548395 -0.273002 -0.953757
  C 4.982313 -0.884967 -2.109810
  H 4.594681 -0.607648 -3.078283
  H 5.810675 -1.584177 -2.117059
  H 0.563419 0.434830 1.288643
  H 0.705813 -0.918198 0.152644
  H 0.648378 0.701685 -0.454829
  H 3.861818 1.491373 1.263293
  H 3.944267 -0.136517 1.879487
  H 1.826540 0.245313 3.167821
  H 1.764033 1.900375 2.536955
  H 4.042541 0.738380 4.201420
  H 2.781894 1.824590 4.792783
  H 3.942970 2.397183 3.609058
  H 2.643541 -0.801800 -1.506932
  H 5.250980 0.128896 -0.237394
 22
 22.847871
  C 1.035881 0.030569 0.369739
  C 2.498031 0.140704 0.406241
  C 3.236783 0.616970 1.595043
  C 2.413862 1.018704 2.820981
  C 3.326958 1.541448 3.927837
  C 3.201242 -0.243793 -0.731351
  C 4.570482 -0.213061 -0.972380
  C 4.895313 -0.910984 -2.130865
  H 4.548920 -0.586059 -3.101651
  H 5.594235 -1.733829 -2.131949
  H 0.563294 0.317782 1.308226
  H 0.737933 -0.990856 0.110711
  H 0.646822 0.661728 -0.431674
  H 3.846995 1.469615 1.296244
  H 3.951449 -0.161874 1.891539
  H 1.861721 0.153165 3.203173
  H 1.697519 1.799216 2.559183
  H 3.988158 0.762021 4.290696
  H 2.737787 1.890940 4.769654
  H 3.935270 2.369789 3.571628
  H 2.722769 -0.789025 -1.526857
  H 5.300168 0.302302 -0.366841
 22
 39.557525
  C 1.133488 0.072235 0.293583
  C 2.590697 0.228827 0.392311
  C 3.280347 0.714999 1.610899
  C 2.404100 1.061323 2.812784
  C 3.265981 1.533597 3.978933
  C 3.374914 -0.124222 -0.695158
  C 4.728533 -0.151962 -0.967343
  C 4.665654 -1.007247 -2.096320
  H 4.396930 -0.620448 -3.064681
  H 5.136931 -1.985124 -2.088198
  H 0.625277 0.337867 1.212705
  H 0.871725 -0.953387 0.032896
  H 0.750022 0.700091 -0.512591
  H 3.866590 1.601126 1.340884
  H 4.014783 -0.037753 1.918223
  H 1.836217 0.184577 3.129581
  H 1.701668 1.854328 2.551625
  H 3.970963 0.762801 4.280229
  H 2.642506 1.773656 4.836948
  H 3.826363 2.427100 3.711780
  H 2.940767 -0.745122 -1.513314
  H 5.580303 0.257694 -0.461420
 22
 48.477996
  C 1.207270 0.061399 0.232867
  C 2.668491 0.241516 0.383343
  C 3.324580 0.731678 1.633527
  C 2.395164 1.049791 2.802344
  C 3.205545 1.527326 4.003507
  C 3.515387 -0.077148 -0.651524
  C 4.833714 -0.111084 -0.976876
  C 4.462076 -1.008587 -2.051079
  H 4.177198 -0.610240 -3.015403
  H 4.792056 -2.042642 -2.038016
  H 0.670658 0.315041 1.138035
  H 0.964669 -0.967934 -0.034067
  H 0.833796 0.691628 -0.576603
  H 3.901771 1.630904 1.391466
  H 4.058570 -0.012815 1.959306
  H 1.832593 0.160362 3.090548
  H 1.689326 1.833196 2.522257
  H 3.912633 0.765437 4.323514
  H 2.546505 1.747733 4.839786
  H 3.759875 2.431750 3.763939
  H 3.074646 -0.756475 -1.516694
  H 5.755914 0.246919 -0.585366
 22
 41.937726
  C 1.310007 0.050590 0.205871
  C 2.763097 0.259370 0.413773
  C 3.369519 0.764383 1.691644
  C 2.383932 1.054450 2.819720
  C 3.133092 1.546917 4.053876
  C 3.670087 -0.020592 -0.556209
  C 4.899673 -0.100324 -1.053043
  C 4.245083 -1.002361 -2.044087
  H 4.023046 -0.572307 -3.018739
  H 4.539863 -2.046931 -2.039150
  H 0.735518 0.288772 1.092071
  H 1.098978 -0.983087 -0.072803
  H 0.953251 0.679098 -0.612352
  H 3.933253 1.678116 1.475990
  H 4.106508 0.035106 2.042195
  H 1.832334 0.150365 3.081946
  H 1.671578 1.821617 2.512934
  H 3.844608 0.800999 4.400630
  H 2.434925 1.748469 4.862448
  H 3.675150 2.465032 3.839296
  H 3.152490 -0.860178 -1.566194
  H 5.897974 0.197667 -0.842191
 22
 31.810108
  C 1.356162 0.124866 0.208859
  C 2.801212 0.324756 0.448180
  C 3.372679 0.796785 1.758463
  C 2.354548 1.065107 2.862137
  C 3.075199 1.521773 4.127065
  C 3.723564 0.067172 -0.487819
  C 4.801311 -0.088065 -1.211385
  C 4.203029 -1.134057 -2.116757
  H 4.068412 -0.759128 -3.129449
  H 4.675398 -2.109523 -2.057409
  H 0.763624 0.347732 1.087227
  H 1.162441 -0.905270 -0.094038
  H 1.018333 0.763305 -0.609780
  H 3.944686 1.711429 1.573160
  H 4.097428 0.056768 2.114520
  H 1.790851 0.158944 3.086644
  H 1.656229 1.845760 2.555140
  H 3.775560 0.765179 4.471854
  H 2.356575 1.703188 4.921736
  H 3.624273 2.443427 3.951770
  H 3.149021 -1.160913 -1.724643
  H 5.807642 0.270492 -1.174972
 22
 20.803049
  C 1.326731 0.243833 0.216241
  C 2.776498 0.395933 0.462510
  C 3.343810 0.815757 1.788129
  C 2.332973 1.068237 2.903007
  C 3.064403 1.490022 4.175169
  C 3.673456 0.118696 -0.473139
  C 4.656558 -0.077800 -1.307921
  C 4.280780 -1.274700 -2.138629
  H 4.024123 -0.949509 -3.150384
  H 5.039303 -2.054629 -2.145701
  H 0.738843 0.435987 1.105693
  H 1.112304 -0.761155 -0.146497
  H 1.009520 0.931897 -0.572405
  H 3.926840 1.727378 1.628328
  H 4.064030 0.056354 2.116441
  H 1.756894 0.162903 3.108106
  H 1.644385 1.864059 2.619472
  H 3.750439 0.713278 4.506872
  H 2.349107 1.672686 4.973649
  H 3.632092 2.404724 4.015163
  H 3.336880 -1.600224 -1.701751
  H 5.614290 0.415376 -1.368952
 22
 8.007722
  C 1.249979 0.436138 0.249257
  C 2.705492 0.435760 0.515979
  C 3.289656 0.786598 1.837085
  C 2.319886 1.126983 2.958534
  C 3.080237 1.439956 4.243688
  C 3.539776 0.110729 -0.481539
  C 4.346131 -0.164254 -1.449403
  C 4.513956 -1.453061 -2.177179
  H 4.218160 -1.321935 -3.216853
  H 5.564099 -1.733008 -2.169534
  H 0.668261 0.621123 1.143704
  H 0.934625 -0.504368 -0.203351
  H 1.032737 1.207210 -0.493028
  H 3.988125 1.622219 1.704517
  H 3.928004 -0.053127 2.141691
  H 1.646867 0.287265 3.142533
  H 1.718437 1.998051 2.690849
  H 3.678034 0.588801 4.560869
  H 2.383374 1.677900 5.043476
  H 3.741522 2.293566 4.110766
  H 3.909371 -2.236440 -1.732660
  H 4.997529 0.632997 -1.806001
