 19
 0.000000
  C 0.992825 0.168245 0.469672
  C 2.449702 0.122742 0.356216
  H 3.051070 0.457441 1.189718
  C 3.034617 -0.341586 -0.800381
  C 4.421769 -0.422039 -1.001249
  C 5.092926 -0.869797 -2.117183
  C 4.639518 -1.387594 -3.407696
  C 3.164474 -1.520566 -3.739472
  H 3.059921 -1.923492 -4.743739
  H 6.174819 -0.842900 -2.050198
  H 0.657140 0.553031 1.428162
  H 0.572456 -0.828722 0.316831
  H 0.572279 0.782754 -0.330053
  H 2.371350 -0.658459 -1.589365
  H 5.040937 -0.090663 -0.175658
  H 5.126179 -2.366105 -3.531371
  H 5.126490 -0.766214 -4.173449
  H 2.666286 -0.554289 -3.715571
  H 2.666139 -2.202353 -3.054325
 19
 12.943901
  C 1.047515 0.223495 0.607675
  C 2.519073 0.076402 0.240728
  H 3.229652 0.375568 0.985860
  C 2.848767 -0.406237 -0.961757
  C 4.210101 -0.418244 -0.992128
  C 5.014055 -0.849120 -2.065945
  C 4.679980 -1.380512 -3.389942
  C 3.238320 -1.560662 -3.839501
  H 3.228061 -1.965838 -4.848968
  H 6.083157 -0.782749 -1.900439
  H 0.897097 0.622503 1.601874
  H 0.551140 -0.740161 0.526738
  H 0.550987 0.863769 -0.116924
  H 2.172436 -0.709350 -1.716828
  H 4.765697 -0.075915 -0.139217
  H 5.222091 -2.338988 -3.475373
  H 5.222539 -0.747615 -4.114329
  H 2.709132 -0.612128 -3.860065
  H 2.708816 -2.260004 -3.198638
 19
 47.491760
  C 1.086571 0.264875 0.710690
  C 2.540777 0.033725 0.134479
  H 3.258567 0.330934 0.874934
  C 2.698846 -0.451135 -1.073656
  C 4.027863 -0.416814 -0.988410
  C 4.973008 -0.845254 -2.056263
  C 4.728209 -1.377458 -3.382267
  C 3.318513 -1.580884 -3.889576
  H 3.353787 -1.985598 -4.898032
  H 6.011500 -0.746651 -1.810507
  H 1.110841 0.664451 1.706748
  H 0.549788 -0.679180 0.700095
  H 0.549909 0.939999 0.050561
  H 1.996943 -0.749345 -1.816351
  H 4.614520 -0.083504 -0.158125
  H 5.289380 -2.317141 -3.447032
  H 5.289686 -0.743391 -4.078767
  H 2.777187 -0.639687 -3.930459
  H 2.777145 -2.289036 -3.268510
 19
 95.850964
  C 1.089541 0.276868 0.740565
  C 2.618128 0.010194 0.076058
  H 3.265047 0.324575 0.860715
  C 2.648860 -0.475379 -1.135542
  C 3.960834 -0.398911 -0.943673
  C 4.965682 -0.836945 -2.035576
  C 4.742071 -1.371873 -3.368612
  C 3.335345 -1.583709 -3.895680
  H 3.388879 -1.989823 -4.908073
  H 5.992319 -0.726761 -1.761446
  H 1.167141 0.672350 1.727353
  H 0.560962 -0.662053 0.748326
  H 0.561639 0.961690 0.097610
  H 1.938259 -0.769098 -1.868631
  H 4.620947 -0.086758 -0.165702
  H 5.305718 -2.313187 -3.431932
  H 5.305450 -0.735292 -4.065167
  H 2.787058 -0.643580 -3.945933
  H 2.787704 -2.298092 -3.282016
 19
 124.580562
  C 0.939985 0.300935 0.824878
  C 2.818812 -0.044015 -0.054683
  H 3.256016 0.288639 0.862501
  C 2.609669 -0.462643 -1.229251
  C 4.076222 -0.409113 -0.988657
  C 4.954332 -0.796806 -1.983710
  C 4.748321 -1.346985 -3.358796
  C 3.342475 -1.596774 -3.887366
  H 3.416676 -2.034062 -4.893134
  H 6.004864 -0.715372 -1.739679
  H 1.154686 0.670146 1.816440
  H 0.492651 -0.669559 0.791553
  H 0.516929 1.023430 0.158269
  H 1.873006 -0.728279 -1.947098
  H 4.760055 -0.117764 -0.209530
  H 5.287659 -2.299075 -3.362954
  H 5.292843 -0.704662 -4.044955
  H 2.783664 -0.667085 -3.977650
  H 2.809593 -2.308508 -3.263071
 19
 127.368130
  C 0.627541 0.371503 1.005796
  C 3.019206 -0.059449 -0.087567
  H 3.290267 0.395995 0.835419
  C 2.686590 -0.466444 -1.227750
  C 4.224081 -0.458885 -1.040428
  C 5.056420 -0.855121 -2.037535
  C 4.802856 -1.387567 -3.410875
  C 3.373722 -1.583469 -3.901659
  H 3.408054 -2.040360 -4.887963
  H 6.116953 -0.828705 -1.826915
  H 0.900968 0.783643 1.955335
  H 0.274031 -0.639204 0.981988
  H 0.238098 1.045839 0.269709
  H 1.947007 -0.710793 -1.946715
  H 4.926535 -0.167722 -0.251841
  H 5.310427 -2.357321 -3.458186
  H 5.336509 -0.734268 -4.107436
  H 2.850693 -0.636309 -3.998042
  H 2.826863 -2.263441 -3.253881
 19
 126.785584
  C 0.327238 0.443233 1.176652
  C 3.216093 -0.066692 -0.116180
  H 3.287143 0.381127 0.842328
  C 2.761904 -0.460449 -1.213527
  C 4.376328 -0.475798 -1.081484
  C 5.150123 -0.886832 -2.107192
  C 4.836761 -1.416130 -3.472393
  C 3.406583 -1.588830 -3.908561
  H 3.408321 -2.035341 -4.900348
  H 6.220488 -0.868489 -1.944684
  H 0.627087 0.848293 2.118401
  H 0.028932 -0.582234 1.124381
  H -0.001996 1.114413 0.410047
  H 2.044946 -0.721573 -1.948391
  H 5.079997 -0.171624 -0.274770
  H 5.346123 -2.381344 -3.552015
  H 5.351733 -0.767508 -4.186391
  H 2.890268 -0.632449 -3.985468
  H 2.878041 -2.278072 -3.257851
 19
 126.472343
  C -0.032646 0.539639 1.425382
  C 3.355926 -0.074932 -0.163672
  H 3.422270 0.391679 0.791324
  C 2.863184 -0.503308 -1.234082
  C 4.491308 -0.494369 -1.140197
  C 5.238483 -0.921109 -2.179813
  C 4.906930 -1.470550 -3.526547
  C 3.456350 -1.592280 -3.969466
  H 3.437875 -2.027033 -4.974283
  H 6.307504 -0.914142 -2.031227
  H 0.317121 0.960437 2.345646
  H -0.292519 -0.497089 1.397459
  H -0.359463 1.192168 0.644691
  H 2.180896 -0.804560 -1.976821
  H 5.195935 -0.159757 -0.347895
  H 5.408517 -2.436094 -3.625318
  H 5.413514 -0.794038 -4.233239
  H 2.976683 -0.620592 -4.027795
  H 2.900516 -2.267602 -3.325135
 19
 128.266158
  C -0.331588 0.624353 1.650600
  C 3.463903 -0.097775 -0.215080
  H 3.539467 0.370595 0.735713
  C 2.925045 -0.521303 -1.264573
  C 4.573277 -0.508246 -1.180462
  C 5.307213 -0.934173 -2.226499
  C 4.965822 -1.492008 -3.570040
  C 3.511886 -1.608584 -4.020620
  H 3.496547 -2.049896 -5.019163
  H 6.381632 -0.932948 -2.086533
  H 0.053862 1.039596 2.555829
  H -0.594177 -0.408615 1.625207
  H -0.667533 1.278367 0.876183
  H 2.234592 -0.815638 -2.005746
  H 5.289674 -0.174510 -0.423657
  H 5.468349 -2.456146 -3.679251
  H 5.473644 -0.819059 -4.276325
  H 3.039991 -0.636205 -4.088845
  H 2.948700 -2.275511 -3.380752
 19
 129.743682
  C -0.630239 0.704346 1.854099
  C 3.565864 -0.121063 -0.274058
  H 3.639981 0.349330 0.676757
  C 2.988087 -0.542721 -1.303822
  C 4.663391 -0.518891 -1.219481
  C 5.381230 -0.940371 -2.277751
  C 5.020631 -1.491491 -3.622222
  C 3.559401 -1.615366 -4.042924
  H 3.526630 -2.054562 -5.041457
  H 6.460058 -0.956984 -2.147351
  H -0.206939 1.119787 2.746194
  H -0.898204 -0.330541 1.835936
  H -0.977808 1.358879 1.082074
  H 2.289340 -0.831085 -2.049022
  H 5.404465 -0.215964 -0.466311
  H 5.505170 -2.466217 -3.713263
  H 5.529992 -0.842931 -4.347713
  H 3.081219 -0.646271 -4.104644
  H 3.015353 -2.284622 -3.392234
 19
 131.846955
  C -0.908575 0.779103 2.052403
  C 3.639107 -0.142152 -0.339936
  H 3.713879 0.317551 0.618862
  C 3.018668 -0.536438 -1.351703
  C 4.736917 -0.519183 -1.249637
  C 5.443318 -0.938657 -2.324601
  C 5.076198 -1.494932 -3.662058
  C 3.616685 -1.635949 -4.065719
  H 3.578817 -2.068536 -5.060426
  H 6.511108 -0.983046 -2.194979
  H -0.446554 1.178011 2.926585
  H -1.192567 -0.249049 2.038227
  H -1.272741 1.444835 1.299493
  H 2.316588 -0.801512 -2.096181
  H 5.508989 -0.262024 -0.500295
  H 5.563311 -2.472720 -3.745775
  H 5.573110 -0.850866 -4.397106
  H 3.123131 -0.670504 -4.114896
  H 3.085719 -2.321975 -3.406145
 19
 131.866690
  C -1.249926 0.861309 2.284964
  C 3.730870 -0.164981 -0.401491
  H 3.791993 0.241512 0.582747
  C 3.059541 -0.480619 -1.407275
  C 4.857813 -0.520243 -1.278667
  C 5.520132 -0.942118 -2.377451
  C 5.133630 -1.498316 -3.711318
  C 3.668261 -1.676732 -4.085093
  H 3.620014 -2.122160 -5.080292
  H 6.593962 -1.002790 -2.265121
  H -0.746289 1.221349 3.154870
  H -1.556668 -0.163324 2.245293
  H -1.609421 1.557103 1.559150
  H 2.368006 -0.700705 -2.183960
  H 5.640530 -0.304322 -0.537843
  H 5.623555 -2.478011 -3.769655
  H 5.615986 -0.871005 -4.465140
  H 3.154463 -0.724397 -4.134963
  H 3.166749 -2.361325 -3.408014
 19
 129.886809
  C -1.558868 0.949208 2.465086
  C 3.807470 -0.218895 -0.444004
  H 3.857183 0.176332 0.548010
  C 3.084784 -0.507677 -1.422557
  C 4.963593 -0.550209 -1.288509
  C 5.584066 -0.949998 -2.412457
  C 5.174547 -1.487843 -3.745469
  C 3.704716 -1.675633 -4.092551
  H 3.642243 -2.099085 -5.094478
  H 6.662309 -1.000514 -2.324977
  H -1.024487 1.307863 3.316647
  H -1.868191 -0.072465 2.428232
  H -1.909755 1.639637 1.730116
  H 2.387394 -0.784691 -2.171698
  H 5.742668 -0.359630 -0.538823
  H 5.674844 -2.458294 -3.823022
  H 5.640515 -0.848037 -4.501568
  H 3.176746 -0.727818 -4.117594
  H 3.225811 -2.380228 -3.416961
