 23
 0.000000
  C 0.993551 0.115792 0.338479
  C 2.468792 0.128950 0.372828
  C 3.220402 0.606368 1.560484
  C 2.402664 1.085881 2.752930
  H 3.076357 1.403866 3.545002
  C 3.133795 -0.328699 -0.765311
  C 4.516239 -0.393425 -0.928292
  C 5.173337 -0.849944 -2.067840
  C 4.520917 -1.342911 -3.297259
  H 3.443473 -1.320891 -3.242845
  O 6.483813 -0.871637 -2.123667
  H 0.540679 0.482891 1.250583
  H 0.636826 -0.897665 0.147497
  H 0.637684 0.715278 -0.501036
  H 3.881097 1.420115 1.241908
  H 3.880826 -0.201569 1.893928
  H 1.774906 0.292223 3.151373
  H 1.775657 1.935032 2.491277
  H 2.509677 -0.657553 -1.583513
  H 5.143412 -0.065327 -0.111087
  H 4.858903 -2.359016 -3.496513
  H 4.859222 -0.746239 -4.143347
  H 6.932382 -0.549003 -1.319580
 23
 10.519322
  C 0.990649 0.123657 0.360727
  C 2.469084 0.128575 0.371574
  C 3.242625 0.603131 1.549683
  C 2.446274 1.087247 2.754752
  H 3.133414 1.401926 3.536483
  C 3.121254 -0.333520 -0.777826
  C 4.506166 -0.412237 -0.973687
  C 5.092463 -0.868407 -2.112952
  C 4.557993 -1.376892 -3.385150
  H 3.479353 -1.381121 -3.399557
  O 6.367129 -0.793200 -1.923652
  H 0.554311 0.493532 1.280062
  H 0.625477 -0.887919 0.176190
  H 0.624839 0.725129 -0.472974
  H 3.901515 1.414206 1.221224
  H 3.902907 -0.208390 1.874093
  H 1.821264 0.296975 3.162797
  H 1.820355 1.939509 2.502438
  H 2.488195 -0.659689 -1.589268
  H 5.125875 -0.083746 -0.153292
  H 4.935548 -2.380106 -3.555187
  H 4.937926 -0.769075 -4.200124
  H 6.680711 -0.453843 -1.072780
 23
 38.401958
  C 1.004586 0.131779 0.380742
  C 2.474805 0.127704 0.370039
  C 3.260738 0.596153 1.532841
  C 2.479412 1.082851 2.743670
  H 3.175175 1.394151 3.517563
  C 3.103290 -0.333013 -0.775715
  C 4.502761 -0.423091 -1.001434
  C 5.018907 -0.887723 -2.162672
  C 4.595427 -1.400254 -3.443730
  H 3.521851 -1.429189 -3.516518
  O 6.249784 -0.735669 -1.783749
  H 0.584259 0.504331 1.306112
  H 0.632245 -0.876543 0.202107
  H 0.631982 0.734958 -0.446654
  H 3.915748 1.405370 1.198603
  H 3.916870 -0.218083 1.852002
  H 1.855408 0.295454 3.157698
  H 1.855161 1.937458 2.497509
  H 2.453531 -0.655360 -1.577897
  H 5.074164 -0.087434 -0.162827
  H 5.008325 -2.389270 -3.585738
  H 5.008597 -0.782982 -4.228932
  H 6.486766 -0.387885 -0.905382
 23
 80.113596
  C 0.991496 0.131752 0.384152
  C 2.476127 0.127753 0.368392
  C 3.276593 0.601193 1.540151
  C 2.501549 1.091912 2.764850
  H 3.206438 1.403200 3.535504
  C 3.098776 -0.332460 -0.776742
  C 4.531339 -0.431655 -1.020925
  C 4.953194 -0.908270 -2.212930
  C 4.621859 -1.422796 -3.503257
  H 3.549105 -1.473098 -3.633129
  O 6.168430 -0.701208 -1.692188
  H 0.571785 0.504027 1.309571
  H 0.617875 -0.879805 0.206303
  H 0.615207 0.736226 -0.444997
  H 3.931393 1.415166 1.201896
  H 3.935847 -0.216972 1.858752
  H 1.878815 0.304093 3.185580
  H 1.875300 1.949641 2.524136
  H 2.441366 -0.650819 -1.570541
  H 5.039209 -0.082319 -0.145597
  H 5.068867 -2.410685 -3.622507
  H 5.071535 -0.790312 -4.270107
  H 6.393766 -0.366287 -0.832326
 23
 125.754131
  C 0.998892 0.127566 0.416542
  C 2.483260 0.154617 0.366279
  C 3.284806 0.636575 1.531095
  C 2.513305 1.085930 2.760309
  H 3.214956 1.402777 3.527121
  C 3.085219 -0.295108 -0.781683
  C 4.542388 -0.431847 -1.026903
  C 4.863570 -0.935925 -2.259850
  C 4.653197 -1.448558 -3.573158
  H 3.590408 -1.511178 -3.785103
  O 6.091848 -0.689074 -1.609558
  H 0.598082 0.488692 1.355426
  H 0.635763 -0.883814 0.248357
  H 0.600249 0.728382 -0.395845
  H 3.914171 1.466609 1.205644
  H 3.958831 -0.169011 1.834453
  H 1.913887 0.277637 3.173465
  H 1.866831 1.930988 2.535749
  H 2.424297 -0.590296 -1.591739
  H 4.957743 -0.103981 -0.091517
  H 5.114826 -2.432284 -3.651365
  H 5.157657 -0.820611 -4.307149
  H 6.374863 -0.397284 -0.745179
 23
 145.930609
  C 0.990348 0.115036 0.410136
  C 2.489473 0.146375 0.336832
  C 3.305816 0.636928 1.505719
  C 2.530787 1.079926 2.743878
  H 3.234898 1.406398 3.509450
  C 3.048952 -0.290173 -0.794477
  C 4.594284 -0.407681 -1.056109
  C 4.813006 -0.927639 -2.267599
  C 4.633664 -1.453744 -3.576610
  H 3.564685 -1.468033 -3.808775
  O 6.112009 -0.679049 -1.499300
  H 0.614653 0.473652 1.356528
  H 0.635373 -0.900961 0.249045
  H 0.563054 0.714333 -0.392233
  H 3.917133 1.479625 1.171602
  H 3.974066 -0.172537 1.815912
  H 1.941075 0.267960 3.157587
  H 1.878516 1.924166 2.523689
  H 2.420154 -0.599802 -1.615561
  H 4.931087 -0.054693 -0.072497
  H 5.059685 -2.458768 -3.641758
  H 5.175491 -0.836587 -4.305968
  H 6.459555 -0.421504 -0.634417
 23
 161.591058
  C 0.977728 0.130856 0.433524
  C 2.475651 0.145473 0.345411
  C 3.301922 0.629645 1.505859
  C 2.549231 1.084063 2.756225
  H 3.264024 1.400662 3.517587
  C 3.015264 -0.295198 -0.790899
  C 4.598775 -0.435052 -1.084493
  C 4.740026 -0.946379 -2.315730
  C 4.679886 -1.474831 -3.626484
  H 3.628056 -1.535884 -3.913380
  O 6.081779 -0.633277 -1.448153
  H 0.621202 0.497211 1.380348
  H 0.609035 -0.876718 0.286318
  H 0.550758 0.740098 -0.357103
  H 3.923084 1.460792 1.169774
  H 3.970305 -0.178079 1.812215
  H 1.947963 0.271644 3.173678
  H 1.889165 1.929870 2.539252
  H 2.385646 -0.608048 -1.616431
  H 4.883162 -0.068585 -0.079288
  H 5.136057 -2.464213 -3.666367
  H 5.226291 -0.836978 -4.328793
  H 6.483607 -0.386749 -0.603853
 23
 139.910876
  C 0.945180 0.493384 0.526722
  C 2.410377 0.194424 0.321729
  C 3.400733 0.391278 1.440119
  C 2.855848 0.899669 2.750905
  H 3.667992 1.001807 3.460039
  C 2.757368 -0.264422 -0.891080
  C 4.359368 -0.756387 -1.372789
  C 4.675690 -1.263717 -2.483002
  C 5.061518 -1.779994 -3.723435
  H 4.277270 -2.457736 -4.091995
  O 5.424759 0.224051 -0.988359
  H 0.740475 0.856406 1.533075
  H 0.352108 -0.392214 0.351374
  H 0.611219 1.251288 -0.173347
  H 4.159451 1.106989 1.111474
  H 3.892608 -0.563702 1.643190
  H 2.128129 0.222304 3.163363
  H 2.407891 1.875081 2.641792
  H 2.028382 -0.394686 -1.662713
  H 4.253208 -0.410012 -0.318102
  H 5.987532 -2.339253 -3.644285
  H 5.204018 -1.005271 -4.451928
  H 5.417259 0.635626 -0.079803
 23
 112.974899
  C 1.043136 0.429878 0.378669
  C 2.519287 0.203347 0.269236
  C 3.419828 0.400377 1.468107
  C 2.760844 0.891359 2.753589
  H 3.517471 0.997195 3.523610
  C 2.977266 -0.221282 -0.907385
  C 4.415111 -0.617025 -1.259167
  C 4.625396 -1.206275 -2.406554
  C 4.812262 -1.792585 -3.652537
  H 4.073511 -2.579252 -3.865116
  O 5.571567 0.461677 -0.979260
  H 0.755705 0.704298 1.382698
  H 0.509992 -0.475264 0.101049
  H 0.726924 1.227891 -0.285014
  H 4.188169 1.137028 1.214610
  H 3.908457 -0.558523 1.700038
  H 2.025347 0.176842 3.121443
  H 2.283843 1.854933 2.614322
  H 2.290391 -0.388754 -1.729724
  H 4.641185 -0.758426 -0.190513
  H 5.803780 -2.247085 -3.692075
  H 4.764932 -1.031314 -4.434245
  H 5.664292 0.826754 -0.084835
