 20
 0.000000
  H 1.409017 0.173936 0.485551
  C 2.479169 0.137288 0.393601
  H 3.098278 0.465757 1.210251
  C 3.021248 -0.330470 -0.770881
  C 4.405484 -0.412911 -0.976967
  C 5.108853 -0.864383 -2.102812
  C 4.616293 -1.384532 -3.400153
  C 3.129141 -1.505990 -3.704351
  C 2.927458 -2.069368 -5.109055
  O 6.417443 -0.850970 -2.069239
  H 2.347033 -0.643596 -1.549981
  H 5.015557 -0.078259 -0.143666
  H 5.081083 -2.370299 -3.526718
  H 5.081847 -0.759893 -4.172754
  H 2.649472 -0.527729 -3.656439
  H 2.648877 -2.179717 -2.993865
  H 3.372828 -1.420332 -5.859086
  H 1.866632 -2.157001 -5.328457
  H 3.372355 -3.057060 -5.202565
  H 6.804259 -0.517599 -1.235438
 20
 8.561692
  H 1.372280 0.191129 0.528400
  C 2.442394 0.153454 0.433993
  H 3.056184 0.483547 1.254640
  C 2.992484 -0.313104 -0.727473
  C 4.369489 -0.386376 -0.910761
  C 5.158507 -0.887898 -2.161461
  C 4.649965 -1.401975 -3.443615
  C 3.155223 -1.511369 -3.717834
  C 2.922019 -2.073107 -5.118362
  O 6.449357 -0.866662 -2.108502
  H 2.328253 -0.629739 -1.515324
  H 4.978321 -0.053286 -0.081427
  H 5.107807 -2.390336 -3.577649
  H 5.108638 -0.780713 -4.223455
  H 2.685151 -0.529411 -3.659425
  H 2.684498 -2.180454 -2.997164
  H 3.357942 -1.427479 -5.876876
  H 1.856704 -2.152687 -5.317732
  H 3.357437 -3.064193 -5.220296
  H 6.830595 -0.531620 -1.270469
 20
 25.429111
  H 1.338592 0.209735 0.577061
  C 2.408039 0.160378 0.452389
  H 3.020119 0.493241 1.278161
  C 2.961905 -0.306068 -0.708591
  C 4.329644 -0.363473 -0.855015
  C 5.211086 -0.913903 -2.226670
  C 4.676156 -1.419356 -3.485463
  C 3.178330 -1.513600 -3.723782
  C 2.911802 -2.072897 -5.118688
  O 6.474957 -0.863383 -2.101804
  H 2.308634 -0.624954 -1.500047
  H 4.990926 -0.045957 -0.067050
  H 5.127375 -2.408893 -3.634085
  H 5.128822 -0.808743 -4.277333
  H 2.723924 -0.525582 -3.653341
  H 2.722195 -2.178214 -2.990258
  H 3.338000 -1.430836 -5.885830
  H 1.842356 -2.143542 -5.297941
  H 3.336051 -3.067911 -5.229076
  H 6.838686 -0.525887 -1.257245
 20
 45.870438
  H 1.295847 0.226629 0.619581
  C 2.360501 0.180624 0.503027
  H 2.958871 0.514229 1.329994
  C 2.928303 -0.284254 -0.653700
  C 4.295474 -0.335466 -0.785213
  C 5.259992 -0.936533 -2.283071
  C 4.712205 -1.436887 -3.529048
  C 3.203268 -1.520244 -3.740600
  C 2.905171 -2.077599 -5.130474
  O 6.518454 -0.882065 -2.148424
  H 2.281865 -0.606974 -1.454272
  H 4.965628 -0.021066 -0.005481
  H 5.157033 -2.432138 -3.683971
  H 5.158641 -0.826702 -4.329561
  H 2.757975 -0.528965 -3.660426
  H 2.756168 -2.180219 -2.997851
  H 3.321351 -1.438899 -5.905848
  H 1.831944 -2.139890 -5.289142
  H 3.319277 -3.076049 -5.248968
  H 6.880968 -0.544175 -1.302898
 20
 65.796004
  H 1.244017 0.242159 0.658352
  C 2.313891 0.200300 0.552198
  H 2.902628 0.538388 1.389819
  C 2.898987 -0.263121 -0.600515
  C 4.259728 -0.307179 -0.714517
  C 5.306738 -0.958974 -2.338915
  C 4.742139 -1.456254 -3.577161
  C 3.231855 -1.527423 -3.758680
  C 2.900571 -2.081897 -5.141262
  O 6.556736 -0.899038 -2.190959
  H 2.264993 -0.587879 -1.406016
  H 4.942276 0.002840 0.054208
  H 5.177101 -2.453633 -3.738839
  H 5.178796 -0.849418 -4.384082
  H 2.797551 -0.532735 -3.667857
  H 2.795542 -2.182406 -3.005765
  H 3.305835 -1.446646 -5.925224
  H 1.823906 -2.135137 -5.277639
  H 3.303514 -3.083770 -5.268155
  H 6.915844 -0.560270 -1.343769
 20
 83.536935
  H 1.196986 0.255631 0.691980
  C 2.264825 0.219012 0.598928
  H 2.838281 0.559231 1.441607
  C 2.868121 -0.242253 -0.548180
  C 4.225035 -0.278859 -0.643820
  C 5.354190 -0.981485 -2.394941
  C 4.775230 -1.474305 -3.622059
  C 3.258805 -1.533252 -3.773419
  C 2.892917 -2.084939 -5.148904
  O 6.597322 -0.916891 -2.235604
  H 2.243310 -0.570947 -1.363318
  H 4.921930 0.025750 0.111523
  H 5.201209 -2.475726 -3.790096
  H 5.203064 -0.869126 -4.436507
  H 2.835440 -0.534412 -3.671818
  H 2.833341 -2.183624 -3.009778
  H 3.286622 -1.453156 -5.941607
  H 1.813096 -2.128859 -5.262243
  H 3.284207 -3.090484 -5.284359
  H 6.954618 -0.577204 -1.386569
 20
 98.589876
  H 1.142491 0.269139 0.725157
  C 2.214398 0.238571 0.647691
  H 2.774630 0.582806 1.500795
  C 2.837948 -0.220321 -0.493523
  C 4.188643 -0.249669 -0.570768
  C 5.398734 -1.003226 -2.449350
  C 4.805422 -1.493170 -3.669385
  C 3.286669 -1.539965 -3.790250
  C 2.886862 -2.088117 -5.156655
  O 6.637396 -0.935605 -2.282434
  H 2.225875 -0.551426 -1.315241
  H 4.900480 0.049165 0.170722
  H 5.221549 -2.497388 -3.843528
  H 5.223405 -0.890294 -4.490256
  H 2.874909 -0.537903 -3.678162
  H 2.872926 -2.185426 -3.016610
  H 3.268746 -1.459684 -5.957657
  H 1.804640 -2.122826 -5.246824
  H 3.266437 -3.096891 -5.300279
  H 6.993185 -0.595821 -1.432933
 20
 110.864648
  H 1.090742 0.282421 0.758039
  C 2.161947 0.258769 0.698140
  H 2.705772 0.605371 1.558118
  C 2.806105 -0.196930 -0.435835
  C 4.152738 -0.219314 -0.495419
  C 5.441594 -1.024519 -2.502570
  C 4.835886 -1.511612 -3.715650
  C 3.313574 -1.546606 -3.806744
  C 2.880236 -2.091348 -5.164481
  O 6.678790 -0.955912 -2.333036
  H 2.204681 -0.531558 -1.267165
  H 4.879810 0.073260 0.231535
  H 5.242501 -2.518890 -3.895345
  H 5.244324 -0.910391 -4.542702
  H 2.912989 -0.540730 -3.684543
  H 2.911268 -2.187890 -3.023072
  H 3.250357 -1.465959 -5.973535
  H 1.795968 -2.117079 -5.231880
  H 3.248312 -3.103414 -5.316041
  H 7.034989 -0.615995 -1.482841
 20
 120.440794
  H 1.033265 0.297355 0.794600
  C 2.107960 0.280696 0.752954
  H 2.637755 0.630845 1.622422
  C 2.772944 -0.171705 -0.373182
  C 4.115702 -0.188168 -0.417978
  C 5.481552 -1.045410 -2.554669
  C 4.864753 -1.530989 -3.764132
  C 3.340922 -1.554483 -3.826238
  C 2.875237 -2.095235 -5.173976
  O 6.720523 -0.977715 -2.387482
  H 2.183717 -0.509125 -1.212223
  H 4.855554 0.099360 0.297446
  H 5.261691 -2.540847 -3.948745
  H 5.263428 -0.931286 -4.596511
  H 2.951804 -0.545610 -3.694525
  H 2.950284 -2.191446 -3.033578
  H 3.233783 -1.472794 -5.990459
  H 1.789666 -2.112124 -5.219010
  H 3.231923 -3.110148 -5.332976
  H 7.076687 -0.637957 -1.537519
 20
 127.450534
  H 0.977602 0.314491 0.837293
  C 2.052418 0.304341 0.812303
  H 2.568863 0.656950 1.687753
  C 2.735598 -0.144498 -0.305195
  C 4.078453 -0.156435 -0.339643
  C 5.519825 -1.066189 -2.606609
  C 4.893824 -1.550438 -3.812843
  C 3.368076 -1.562831 -3.847202
  C 2.870882 -2.099848 -5.185379
  O 6.762949 -1.001620 -2.446967
  H 2.156313 -0.485514 -1.153084
  H 4.826216 0.127838 0.368158
  H 5.281312 -2.562824 -4.001531
  H 5.283070 -0.951792 -4.649987
  H 2.990082 -0.550598 -3.706560
  H 2.988636 -2.195995 -3.045689
  H 3.218235 -1.480225 -6.009010
  H 1.784374 -2.108133 -5.208805
  H 3.216490 -3.117677 -5.351359
  H 7.120723 -0.661932 -1.596272
 20
 132.449550
  H 0.919820 0.332880 0.885833
  C 1.996460 0.329240 0.875340
  H 2.502369 0.685316 1.757115
  C 2.695726 -0.116183 -0.233784
  C 4.039029 -0.123788 -0.260865
  C 5.556849 -1.086497 -2.657322
  C 4.921347 -1.570069 -3.861822
  C 3.394556 -1.571848 -3.870304
  C 2.867966 -2.104898 -5.198286
  O 6.804603 -1.026990 -2.509310
  H 2.127111 -0.460755 -1.087877
  H 4.790291 0.159824 0.443394
  H 5.299438 -2.584912 -4.054003
  H 5.301481 -0.972386 -4.703331
  H 3.027486 -0.556937 -3.721688
  H 3.025855 -2.201167 -3.061051
  H 3.204723 -1.488057 -6.028316
  H 1.781234 -2.104907 -5.201312
  H 3.202846 -3.125210 -5.370511
  H 7.166174 -0.688796 -1.659826
 20
 135.960394
  H 0.866381 0.357196 0.943846
  C 1.942649 0.357324 0.945145
  H 2.439769 0.715314 1.830361
  C 2.653985 -0.085756 -0.156266
  C 3.998983 -0.091472 -0.179201
  C 5.589862 -1.106753 -2.707430
  C 4.945944 -1.589423 -3.910112
  C 3.418480 -1.582598 -3.896835
  C 2.867830 -2.112213 -5.216524
  O 6.841378 -1.051838 -2.571631
  H 2.093327 -0.432750 -1.016544
  H 4.753637 0.191071 0.523388
  H 5.316048 -2.606258 -4.105180
  H 5.317921 -0.992050 -4.754997
  H 3.060382 -0.565324 -3.741397
  H 3.058865 -2.209128 -3.081116
  H 3.195914 -1.497316 -6.051662
  H 1.781137 -2.105642 -5.202969
  H 3.194151 -3.134574 -5.393940
  H 7.205119 -0.713345 -1.722238
 20
 138.426977
  H 0.813441 0.385492 1.009242
  C 1.890556 0.387555 1.019804
  H 2.381928 0.747601 1.908491
  C 2.610850 -0.054238 -0.075082
  C 3.957382 -0.059127 -0.096076
  C 5.620222 -1.126683 -2.756853
  C 4.968102 -1.608493 -3.957872
  C 3.440391 -1.594428 -3.925887
  C 2.869455 -2.120786 -5.237883
  O 6.875064 -1.076195 -2.633456
  H 2.057196 -0.402624 -0.939506
  H 4.713407 0.222141 0.605476
  H 5.331155 -2.627047 -4.155399
  H 5.332712 -1.011163 -4.805563
  H 3.090026 -0.575475 -3.764660
  H 3.088750 -2.218517 -3.105004
  H 3.190023 -1.507540 -6.077048
  H 1.783127 -2.108665 -5.210174
  H 3.188466 -3.144617 -5.419655
  H 7.240770 -0.737545 -1.785230
 20
 140.083282
  H 0.762555 0.416134 1.079950
  C 1.839301 0.418917 1.097414
  H 2.326305 0.780787 1.987449
  C 2.565913 -0.022404 0.007955
  C 3.914249 -0.026282 -0.012519
  C 5.649045 -1.146195 -2.805783
  C 4.988274 -1.626833 -4.004305
  C 3.460528 -1.606259 -3.955247
  C 2.871098 -2.129669 -5.260256
  O 6.906755 -1.100813 -2.695997
  H 2.017546 -0.372412 -0.860026
  H 4.670657 0.254335 0.689756
  H 5.344707 -2.646960 -4.204097
  H 5.345951 -1.029530 -4.854568
  H 3.117079 -0.585685 -3.788822
  H 3.116161 -2.228361 -3.129641
  H 3.184699 -1.517753 -6.103152
  H 1.785202 -2.112568 -5.219564
  H 3.183485 -3.154932 -5.446002
  H 7.277503 -0.762789 -1.849356
