10

H 1.432788117689578 -0.07451125593243735 0.041781894096655114
C 2.50263 -0.082861 0.025392
C 3.217013 -0.596028 -0.982044
C 4.655457 -0.606405 -1.002412
C 5.379281 -1.120656 -2.011972
H 6.449175162281478 -1.1274871663243677 -2.025381574290885
H 3.004053 0.352283 0.879655
H 2.702206 -1.028961 -1.831952
H 5.158067 -0.171101 -0.147843
H 4.877258 -1.556064 -2.86675
