 13
 0.000000
  C 1.008824 -0.071280 0.048127
  C 2.504980 -0.084255 0.022654
  C 3.216856 -0.596279 -0.982536
  C 4.658680 -0.608428 -1.006382
  C 5.372749 -1.118472 -2.007683
  H 6.445568 -1.124518 -2.019551
  H 0.648059 0.394827 0.963165
  H 0.612531 -1.085205 0.008577
  H 0.612530 0.492875 -0.795284
  H 3.008148 0.350263 0.875689
  H 2.702624 -1.028763 -1.831562
  H 5.163117 -0.173785 -0.153109
  H 4.871575 -1.552654 -2.860057
 13
 0.518353
  C 1.008101 -0.075869 0.060041
  C 2.501643 -0.058287 0.016052
  C 3.221397 -0.584066 -0.973801
  C 4.661840 -0.604078 -1.005078
  C 5.355364 -1.100432 -2.027382
  H 6.429264 -1.200199 -2.004331
  H 0.640657 0.276904 1.019074
  H 0.627405 -1.080089 -0.111872
  H 0.600035 0.567858 -0.718712
  H 3.007423 0.418726 0.846822
  H 2.737990 -1.104243 -1.786349
  H 5.172434 -0.205304 -0.136080
  H 4.863164 -1.456306 -2.915767
 13
 3.219878
  C 1.009634 -0.099849 0.053167
  C 2.500340 -0.024011 0.006171
  C 3.237452 -0.498224 -0.998041
  C 4.683421 -0.535341 -1.007136
  C 5.331930 -1.150916 -1.987003
  H 6.383539 -1.383043 -1.995866
  H 0.634619 0.144959 1.041014
  H 0.657587 -1.090384 -0.221273
  H 0.579532 0.606850 -0.657515
  H 2.990882 0.416876 0.863887
  H 2.795699 -1.113348 -1.774097
  H 5.207477 -0.064353 -0.184003
  H 4.814662 -1.423769 -2.896111
 13
 11.855966
  C 1.013289 -0.101851 0.039778
  C 2.502845 0.001335 0.017878
  C 3.247738 -0.470287 -0.984447
  C 4.689043 -0.499115 -1.015293
  C 5.283246 -1.190291 -1.986294
  H 6.308543 -1.526342 -1.946371
  H 0.613661 0.179790 1.009423
  H 0.687181 -1.114007 -0.190568
  H 0.582009 0.558346 -0.714686
  H 2.977756 0.312044 0.938924
  H 2.847816 -1.136313 -1.744434
  H 5.242785 0.043526 -0.263133
  H 4.829542 -1.290072 -2.961565
 13
 26.303947
  C 1.011871 -0.114405 0.010581
  C 2.505001 -0.021352 0.073338
  C 3.291965 -0.471558 -0.910023
  C 4.721739 -0.419404 -1.016276
  C 5.214059 -1.195754 -2.006089
  H 6.167404 -1.693465 -1.976012
  H 0.554343 0.197756 0.948335
  H 0.677835 -1.129882 -0.216722
  H 0.642400 0.526862 -0.789531
  H 2.931422 0.242136 1.031573
  H 2.976107 -1.193827 -1.659062
  H 5.338146 0.168255 -0.347342
  H 4.798250 -1.162162 -2.999997
 13
 41.609870
  C 1.007703 -0.113010 0.014740
  C 2.500438 -0.057425 0.063519
  C 3.278780 -0.374359 -0.981469
  C 4.712050 -0.341090 -1.067902
  C 5.153604 -1.253608 -1.978871
  H 6.096783 -1.750318 -1.794143
  H 0.566694 -0.047472 1.004748
  H 0.657873 -1.024451 -0.471038
  H 0.640522 0.707762 -0.596820
  H 2.949732 0.142721 1.029338
  H 3.085094 -1.220472 -1.660602
  H 5.353091 0.292156 -0.484028
  H 4.843421 -1.260179 -3.006886
 13
 60.322548
  C 1.034289 -0.152080 -0.081548
  C 2.501973 -0.044504 0.147288
  C 3.411234 -0.323050 -0.807397
  C 4.803986 -0.296999 -1.015449
  C 5.008797 -1.281701 -1.963271
  H 5.910362 -1.921925 -1.939232
  H 0.502736 -0.086976 0.867015
  H 0.760402 -1.099144 -0.536251
  H 0.676659 0.673394 -0.694014
  H 2.830248 0.095442 1.170424
  H 3.225858 -1.153698 -1.555211
  H 5.518770 0.383755 -0.613565
  H 4.688955 -1.146095 -2.971014
 13
 73.637872
  C 1.064491 -0.158129 -0.116958
  C 2.528394 -0.054743 0.196185
  C 3.489257 -0.224912 -0.706022
  C 4.802392 -0.184467 -1.029367
  C 4.882006 -1.293219 -1.947419
  H 5.725844 -1.979863 -1.903115
  H 0.475554 -0.160996 0.796477
  H 0.840279 -1.068703 -0.673939
  H 0.744029 0.686610 -0.728599
  H 2.795602 -0.007669 1.245925
  H 3.452744 -1.295018 -1.532916
  H 5.586326 0.479385 -0.707133
  H 4.530480 -1.147672 -2.958009
 13
 51.861940
  C 1.063678 -0.126100 -0.106305
  C 2.525408 -0.029859 0.252967
  C 3.526668 -0.157273 -0.585414
  C 4.739424 -0.135559 -1.052220
  C 4.805097 -1.355170 -1.948895
  H 5.690734 -1.961699 -1.857438
  H 0.457996 -0.222992 0.783692
  H 0.872852 -0.986806 -0.743332
  H 0.743845 0.763303 -0.670274
  H 2.759217 -0.057511 1.320357
  H 3.720303 -1.562933 -1.690697
  H 5.522580 0.578662 -0.840919
  H 4.553975 -1.187507 -3.008042
 13
 32.794480
  C 1.069416 -0.088576 -0.109686
  C 2.515875 -0.083979 0.298319
  C 3.526493 -0.161921 -0.515725
  C 4.680585 -0.124007 -1.113472
  C 4.844204 -1.357406 -1.981366
  H 5.771474 -1.882163 -1.900816
  H 0.428641 -0.162199 0.761153
  H 0.861036 -0.939579 -0.757151
  H 0.806475 0.818695 -0.647777
  H 2.724672 -0.120436 1.369300
  H 3.885688 -1.795444 -1.643863
  H 5.460914 0.598328 -0.948720
  H 4.508306 -1.175802 -3.012024
 13
 18.999614
  C 1.070544 -0.055853 -0.083029
  C 2.519401 -0.103085 0.323954
  C 3.530389 -0.157558 -0.487660
  C 4.629579 -0.130563 -1.175754
  C 4.868131 -1.381357 -1.960547
  H 5.851389 -1.829478 -1.886001
  H 0.424368 -0.231555 0.770740
  H 0.875429 -0.807086 -0.844430
  H 0.802524 0.911624 -0.512023
  H 2.707540 -0.211433 1.386725
  H 4.001886 -1.964475 -1.618823
  H 5.310949 0.701949 -1.172213
  H 4.613302 -1.244991 -3.014297
 13
 9.842595
  C 1.076124 0.010159 -0.076337
  C 2.493076 -0.161914 0.401672
  C 3.532012 -0.205446 -0.377858
  C 4.526627 -0.165866 -1.209306
  C 4.897928 -1.403345 -1.975211
  H 5.961918 -1.607017 -1.985718
  H 0.378838 -0.141861 0.742560
  H 0.851044 -0.703354 -0.866825
  H 0.920852 1.011284 -0.478824
  H 2.622131 -0.360212 1.459486
  H 4.298162 -2.201233 -1.543209
  H 5.105832 0.734732 -1.358696
  H 4.540888 -1.309786 -3.005093
 13
 7.923392
  C 1.026279 0.088328 -0.034425
  C 2.442026 -0.205976 0.382700
  C 3.447200 -0.254205 -0.434338
  C 4.458114 -0.248763 -1.230608
  C 4.963376 -1.443056 -1.991574
  H 6.048017 -1.412030 -2.071111
  H 0.335381 -0.142947 0.771872
  H 0.751870 -0.494903 -0.911844
  H 0.918417 1.142864 -0.288578
  H 2.603183 -0.401825 1.435898
  H 4.669141 -2.365801 -1.500803
  H 4.992230 0.678091 -1.399099
  H 4.550197 -1.443641 -3.001449
 13
 7.715771
  C 1.023169 0.081511 -0.029447
  C 2.443104 -0.200729 0.379189
  C 3.448537 -0.223282 -0.441440
  C 4.465365 -0.237267 -1.246938
  C 4.959505 -1.447587 -1.985676
  H 6.046387 -1.443002 -2.033125
  H 0.336046 -0.195184 0.765677
  H 0.762593 -0.471915 -0.929826
  H 0.894075 1.143058 -0.241259
  H 2.612769 -0.386698 1.433016
  H 4.629211 -2.363136 -1.500356
  H 5.007291 0.682263 -1.435446
  H 4.577378 -1.441892 -3.007728
