 22
 0.000000
  C 0.976696 0.200581 0.551765
  C 2.422748 0.121909 0.354432
  H 3.075026 0.444236 1.155088
  C 2.983367 -0.346720 -0.811800
  C 4.372103 -0.423604 -1.004602
  C 5.054209 -0.868137 -2.112327
  C 4.615250 -1.387553 -3.406926
  C 3.143509 -1.529415 -3.762252
  C 2.984052 -2.094689 -5.171949
  H 6.133840 -0.835719 -2.031607
  H 0.708700 0.592988 1.527710
  H 0.524086 -0.786258 0.421415
  H 0.523215 0.821933 -0.225427
  H 2.323021 -0.664686 -1.602119
  H 4.987105 -0.090949 -0.176966
  H 5.107853 -2.364553 -3.527053
  H 5.108591 -0.765044 -4.168963
  H 2.652127 -0.555734 -3.724978
  H 2.651268 -2.207024 -3.062615
  H 3.442539 -1.441347 -5.910620
  H 1.930867 -2.194389 -5.422097
  H 3.441663 -3.077836 -5.254370
 22
 0.071981
  C 0.984914 0.207360 0.568932
  C 2.417913 0.051033 0.363523
  H 3.079281 0.188473 1.211587
  C 2.964890 -0.269754 -0.859014
  C 4.351622 -0.421624 -1.018821
  C 5.053670 -0.808022 -2.138225
  C 4.624482 -1.347491 -3.426167
  C 3.152721 -1.523199 -3.767557
  C 2.991096 -2.168087 -5.140090
  H 6.135030 -0.745181 -2.048980
  H 0.733599 0.451333 1.597097
  H 0.457759 -0.701626 0.269063
  H 0.591506 0.977196 -0.100679
  H 2.298997 -0.395341 -1.699419
  H 4.946387 -0.179140 -0.144784
  H 5.138445 -2.316516 -3.537407
  H 5.109881 -0.736744 -4.203130
  H 2.654556 -0.552690 -3.783151
  H 2.669173 -2.159564 -3.023868
  H 3.441057 -1.553595 -5.916869
  H 1.936510 -2.290548 -5.379112
  H 3.456440 -3.150226 -5.169094
 22
 0.508175
  C 0.983672 0.172109 0.553570
  C 2.418119 0.000156 0.350169
  H 3.063607 -0.006967 1.216973
  C 2.975944 -0.187712 -0.891163
  C 4.360384 -0.377474 -1.046074
  C 5.070232 -0.775133 -2.152885
  C 4.636437 -1.352619 -3.424432
  C 3.161411 -1.500237 -3.753055
  C 2.974421 -2.204269 -5.092269
  H 6.146550 -0.721774 -2.058703
  H 0.719248 0.273966 1.601167
  H 0.431233 -0.665605 0.115396
  H 0.629128 1.044686 -0.004297
  H 2.324342 -0.171574 -1.746512
  H 4.941473 -0.127490 -0.162764
  H 5.134312 -2.329576 -3.514960
  H 5.124255 -0.759709 -4.214853
  H 2.695331 -0.515872 -3.814105
  H 2.661185 -2.082252 -2.974339
  H 3.438488 -1.641709 -5.896094
  H 1.917631 -2.301434 -5.322817
  H 3.404632 -3.198498 -5.076278
 22
 1.992821
  C 0.981846 0.151035 0.509223
  C 2.409331 -0.079290 0.310801
  H 3.031591 -0.251689 1.183148
  C 2.994717 -0.104625 -0.934272
  C 4.370664 -0.372233 -1.065093
  C 5.096165 -0.733934 -2.170393
  C 4.654569 -1.328526 -3.428791
  C 3.170241 -1.483986 -3.710068
  C 2.945212 -2.240039 -5.018668
  H 6.174272 -0.659958 -2.077468
  H 0.697086 0.132071 1.552977
  H 0.391127 -0.579076 -0.047207
  H 0.695976 1.106958 0.065304
  H 2.360993 0.087078 -1.781362
  H 4.928423 -0.180875 -0.146481
  H 5.153108 -2.305770 -3.512141
  H 5.122648 -0.747277 -4.238287
  H 2.709268 -0.500232 -3.800144
  H 2.689025 -2.027542 -2.895391
  H 3.390374 -1.707913 -5.857797
  H 1.878280 -2.343840 -5.217816
  H 3.376983 -3.238692 -4.976389
 22
 4.849527
  C 0.974826 0.161797 0.464848
  C 2.406968 -0.082201 0.287799
  H 2.992576 -0.364985 1.157664
  C 3.018423 -0.029215 -0.936149
  C 4.395666 -0.346185 -1.085595
  C 5.119011 -0.762048 -2.160434
  C 4.667197 -1.374218 -3.419436
  C 3.178066 -1.556068 -3.648882
  C 2.922427 -2.218221 -4.996918
  H 6.192612 -0.662437 -2.099801
  H 0.663935 0.059795 1.497828
  H 0.392497 -0.526352 -0.144523
  H 0.710772 1.153693 0.089612
  H 2.417566 0.258471 -1.787516
  H 4.919277 -0.110514 -0.160215
  H 5.190919 -2.328780 -3.526928
  H 5.076245 -0.740452 -4.216496
  H 2.676025 -0.591025 -3.639460
  H 2.742092 -2.177708 -2.856776
  H 3.319006 -1.613164 -5.811286
  H 1.855449 -2.335441 -5.161766
  H 3.380876 -3.200514 -5.044863
 22
 7.461766
  C 0.978684 0.154600 0.487028
  C 2.414438 -0.090261 0.280883
  H 3.006491 -0.402481 1.129282
  C 3.014882 0.004006 -0.948974
  C 4.389270 -0.334898 -1.099366
  C 5.126053 -0.772867 -2.162576
  C 4.677252 -1.377819 -3.417258
  C 3.178724 -1.560055 -3.653100
  C 2.917202 -2.224301 -5.003479
  H 6.199957 -0.643994 -2.084377
  H 0.680551 -0.003135 1.508480
  H 0.379343 -0.488621 -0.155046
  H 0.721125 1.170560 0.180308
  H 2.387155 0.311064 -1.761862
  H 4.851031 -0.064740 -0.164398
  H 5.182973 -2.349785 -3.495529
  H 5.117983 -0.784276 -4.236175
  H 2.689864 -0.580862 -3.657036
  H 2.733706 -2.151635 -2.852719
  H 3.334770 -1.627160 -5.816947
  H 1.851400 -2.327186 -5.173282
  H 3.353066 -3.220996 -5.045564
 22
 10.696660
  C 0.967536 0.107965 0.390395
  C 2.401684 -0.160777 0.261364
  H 2.926752 -0.550947 1.117011
  C 3.080775 0.042690 -0.914033
  C 4.450813 -0.328514 -1.098198
  C 5.153793 -0.735831 -2.187000
  C 4.674101 -1.366000 -3.417947
  C 3.169147 -1.538177 -3.583381
  C 2.864155 -2.227550 -4.922957
  H 6.234989 -0.611278 -2.163753
  H 0.603459 -0.114586 1.384311
  H 0.390405 -0.485426 -0.325482
  H 0.758669 1.154186 0.152973
  H 2.539868 0.458138 -1.753767
  H 4.883856 -0.045600 -0.150952
  H 5.173793 -2.337425 -3.483442
  H 5.047280 -0.726451 -4.234987
  H 2.709732 -0.551420 -3.598865
  H 2.761068 -2.127723 -2.764350
  H 3.262087 -1.657243 -5.752914
  H 1.794640 -2.319326 -5.067870
  H 3.296123 -3.221489 -4.959122
 22
 10.535198
  C 0.963087 0.108520 0.421534
  C 2.381552 -0.201652 0.226623
  H 2.931948 -0.653506 1.043855
  C 3.040318 0.088347 -0.931913
  C 4.412043 -0.296594 -1.121466
  C 5.147277 -0.717515 -2.174640
  C 4.679170 -1.380397 -3.406631
  C 3.174563 -1.571699 -3.585806
  C 2.869753 -2.236933 -4.924644
  H 6.216531 -0.564972 -2.126901
  H 0.609531 -0.181564 1.406260
  H 0.358157 -0.375700 -0.335459
  H 0.788593 1.182907 0.267300
  H 2.523346 0.631409 -1.698222
  H 4.891261 0.009834 -0.233017
  H 5.181613 -2.342796 -3.484425
  H 5.073824 -0.769109 -4.238106
  H 2.676892 -0.636248 -3.544405
  H 2.789987 -2.201918 -2.787140
  H 3.231357 -1.625097 -5.755095
  H 1.804693 -2.374072 -5.044262
  H 3.348235 -3.219774 -4.989445
 22
 14.332897
  C 0.953440 0.049407 0.334691
  C 2.366183 -0.293562 0.132599
  H 2.861720 -0.934503 0.848535
  C 3.084206 0.192756 -0.935516
  C 4.456550 -0.226609 -1.155881
  C 5.171149 -0.663778 -2.198107
  C 4.676173 -1.364756 -3.402062
  C 3.168617 -1.557077 -3.503380
  C 2.814549 -2.267589 -4.823217
  H 6.254797 -0.545511 -2.177964
  H 0.548768 -0.418993 1.219663
  H 0.344585 -0.232916 -0.526382
  H 0.841727 1.142105 0.388055
  H 2.621369 0.893084 -1.602340
  H 4.949526 0.107571 -0.226656
  H 5.176817 -2.339471 -3.458194
  H 5.044962 -0.769307 -4.251533
  H 2.694803 -0.603446 -3.483477
  H 2.824301 -2.143477 -2.678564
  H 3.151031 -1.691727 -5.680472
  H 1.746993 -2.396485 -4.905496
  H 3.281733 -3.250464 -4.870337
 22
 18.967053
  C 0.945106 0.097306 0.396600
  C 2.315641 -0.362036 0.124127
  H 2.708808 -1.168803 0.712891
  C 3.083560 0.188934 -0.867288
  C 4.417166 -0.214342 -1.219166
  C 5.177263 -0.623513 -2.221798
  C 4.714263 -1.349949 -3.438338
  C 3.200155 -1.567140 -3.537665
  C 2.841557 -2.327153 -4.816920
  H 6.237935 -0.489281 -2.178165
  H 0.490810 -0.436035 1.224668
  H 0.320171 -0.021016 -0.479245
  H 0.946335 1.172160 0.596647
  H 2.662343 0.983936 -1.472103
  H 4.830368 0.199799 -0.298485
  H 5.223519 -2.308527 -3.484481
  H 5.075768 -0.771274 -4.306831
  H 2.698971 -0.612319 -3.539802
  H 2.847267 -2.132086 -2.675713
  H 3.170499 -1.790312 -5.690575
  H 1.772024 -2.456341 -4.889751
  H 3.303631 -3.315986 -4.825811
 22
 26.211861
  C 0.968528 0.136502 0.495444
  C 2.286348 -0.375059 0.122122
  H 2.670993 -1.258168 0.622720
  C 3.053705 0.250364 -0.817337
  C 4.311919 -0.223785 -1.289181
  C 5.122440 -0.613952 -2.244819
  C 4.719079 -1.376731 -3.462483
  C 3.221518 -1.596653 -3.592288
  C 2.901607 -2.387762 -4.857409
  H 6.189897 -0.431678 -2.166180
  H 0.501206 -0.471454 1.260709
  H 0.303666 0.181810 -0.369927
  H 1.052326 1.173715 0.846419
  H 2.637227 1.114867 -1.323868
  H 4.660753 0.263868 -0.333343
  H 5.249567 -2.340913 -3.480929
  H 5.082807 -0.800169 -4.316215
  H 2.710770 -0.636698 -3.634765
  H 2.855007 -2.143113 -2.726207
  H 3.246979 -1.857324 -5.737721
  H 1.832887 -2.536761 -4.952452
  H 3.380784 -3.367210 -4.840958
 22
 33.781933
  C 0.980658 0.190902 0.657512
  C 2.302506 -0.313315 0.277313
  H 2.728551 -1.140982 0.826906
  C 3.008991 0.245222 -0.762054
  C 4.204578 -0.245253 -1.364061
  C 5.071198 -0.653325 -2.244059
  C 4.736528 -1.395037 -3.503896
  C 3.240393 -1.628919 -3.703047
  C 2.979079 -2.403227 -4.989860
  H 6.129218 -0.484195 -2.097916
  H 0.567786 -0.357135 1.498000
  H 0.282500 0.132368 -0.180972
  H 1.034491 1.255840 0.911423
  H 2.564985 1.097554 -1.281016
  H 4.439862 0.269400 -0.363582
  H 5.260225 -2.355546 -3.477348
  H 5.145329 -0.827497 -4.342013
  H 2.725540 -0.667236 -3.753596
  H 2.837370 -2.186790 -2.857062
  H 3.355766 -1.859233 -5.853237
  H 1.912796 -2.563743 -5.129212
  H 3.465597 -3.375758 -4.962342
 22
 40.642478
  C 1.008245 0.221963 0.757024
  C 2.304382 -0.302693 0.317443
  H 2.725254 -1.161395 0.806193
  C 3.004978 0.293986 -0.722190
  C 4.125348 -0.230976 -1.419879
  C 5.025198 -0.671905 -2.238969
  C 4.732475 -1.431982 -3.500564
  C 3.243331 -1.631989 -3.769413
  C 3.026048 -2.429902 -5.050597
  H 6.081737 -0.520813 -2.050842
  H 0.601248 -0.356387 1.576121
  H 0.295711 0.227715 -0.053519
  H 1.098053 1.258543 1.064276
  H 2.564371 1.185078 -1.198940
  H 4.274573 0.346093 -0.393292
  H 5.234347 -2.400428 -3.434920
  H 5.193806 -0.887374 -4.330289
  H 2.756992 -0.660507 -3.862846
  H 2.785948 -2.163452 -2.933465
  H 3.459214 -1.912699 -5.908538
  H 1.962569 -2.567511 -5.240187
  H 3.487141 -3.415311 -4.978272
