 17
 0.000000
  H 1.375272 0.140283 0.400410
  C 2.445261 0.138532 0.395784
  C 3.234973 0.607589 1.562934
  H 2.692888 0.951487 2.418959
  C 3.056527 -0.326240 -0.761266
  C 4.434557 -0.412807 -0.977341
  C 5.116634 -0.862171 -2.097644
  C 4.626711 -1.386353 -3.404443
  H 3.580501 -1.469732 -3.612753
  O 6.441363 -0.854110 -2.077903
  H 3.890881 1.419250 1.227711
  H 3.891049 -0.210235 1.882449
  H 2.395882 -0.642369 -1.548407
  H 5.050449 -0.080233 -0.149165
  H 5.083529 -2.374996 -3.529298
  H 5.083826 -0.758265 -4.177923
  H 6.799446 -0.516763 -1.236311
 17
 0.000000
  H 1.442759 0.107148 0.317851
  C 2.512284 0.119186 0.347569
  C 3.258025 0.598132 1.539375
  H 2.684357 0.934835 2.377496
  C 3.166311 -0.337426 -0.789180
  C 4.451700 -0.412353 -0.976227
  C 5.082187 -0.850430 -2.068392
  C 4.590159 -1.374342 -3.374508
  H 3.543614 -1.457142 -3.581363
  O 6.309271 -0.834051 -2.027899
  H 3.913843 1.418249 1.225213
  H 3.913995 -0.211238 1.879945
  H 2.565401 -0.661728 -1.596702
  H 5.072327 -0.081002 -0.151101
  H 5.046255 -2.363238 -3.499996
  H 5.046546 -0.746507 -4.148623
  H 6.600717 -0.485226 -1.157665
 17
 0.000000
  H 1.512445 0.074270 0.235932
  C 2.580156 0.100488 0.300969
  C 3.279696 0.589018 1.516668
  H 2.674230 0.917893 2.335311
  C 3.277388 -0.347154 -0.813459
  C 4.468643 -0.411392 -0.973849
  C 5.050485 -0.839450 -2.041036
  C 4.555488 -1.362978 -3.346184
  H 3.508476 -1.444960 -3.550988
  O 6.178111 -0.816318 -1.983692
  H 3.934603 1.417833 1.224173
  H 3.934738 -0.211657 1.878898
  H 2.736332 -0.680062 -1.642445
  H 5.094573 -0.081428 -0.152180
  H 5.010564 -2.352230 -3.472564
  H 5.010848 -0.735501 -4.121194
  H 6.397601 -0.455079 -1.082480
 17
 0.000000
  H 1.584053 0.041976 0.155465
  C 2.648482 0.082756 0.256776
  C 3.299533 0.580505 1.495464
  H 2.662134 0.900888 2.292968
  C 3.389269 -0.355058 -0.833195
  C 4.485637 -0.409651 -0.969530
  C 5.022139 -0.829594 -2.016483
  C 4.523054 -1.352588 -3.320288
  H 3.475405 -1.433440 -3.522263
  O 6.049053 -0.801345 -1.946364
  H 3.952634 1.418257 1.225227
  H 3.952751 -0.211236 1.879946
  H 2.908777 -0.697222 -1.685264
  H 5.117589 -0.081284 -0.151841
  H 4.976720 -2.342330 -3.447894
  H 4.976996 -0.725603 -4.096527
  H 6.189105 -0.426864 -1.012102
 17
 0.000000
  H 1.657084 0.010714 0.077567
  C 2.716645 0.066416 0.216051
  C 3.316905 0.572951 1.476647
  H 2.647551 0.884149 2.251290
  C 3.501196 -0.360676 -0.847236
  C 4.503047 -0.406762 -0.962346
  C 4.997909 -0.821352 -1.995949
  C 4.493326 -1.343617 -3.297928
  H 3.444832 -1.422946 -3.496091
  O 5.923658 -0.789648 -1.917198
  H 3.967233 1.419863 1.229228
  H 3.967332 -0.209634 1.883938
  H 3.082765 -0.712946 -1.724502
  H 5.141929 -0.080259 -0.149307
  H 4.945085 -2.334019 -3.427179
  H 4.945353 -0.717292 -4.075816
  H 5.974165 -0.401428 -0.948647
 17
 0.000000
  H 1.730681 -0.018876 0.003834
  C 2.783682 0.052054 0.180250
  C 3.330944 0.566854 1.461463
  H 2.629794 0.868170 2.211504
  C 3.611975 -0.363408 -0.854087
  C 4.521380 -0.402219 -0.951039
  C 4.978740 -0.815392 -1.981108
  C 4.466948 -1.336690 -3.280659
  H 3.417370 -1.414014 -3.473812
  O 5.804033 -0.781853 -1.897759
  H 3.977466 1.423116 1.237335
  H 3.977546 -0.206384 1.892038
  H 3.258059 -0.726814 -1.759116
  H 5.168324 -0.077925 -0.143509
  H 4.916190 -2.327952 -3.412058
  H 4.916451 -0.711228 -4.060700
  H 5.751788 -0.380054 -0.895312
 17
 0.000000
  H 1.803360 -0.045829 -0.063333
  C 2.848052 0.040511 0.151476
  C 3.340454 0.562944 1.451727
  H 2.607977 0.853725 2.175538
  C 3.719653 -0.362458 -0.851760
  C 4.541303 -0.395340 -0.933909
  C 4.965818 -0.812667 -1.974324
  C 4.444880 -1.332713 -3.270739
  H 3.393964 -1.407484 -3.457517
  O 5.693114 -0.778766 -1.890049
  H 3.982102 1.428670 1.251181
  H 3.982160 -0.200832 1.905875
  H 3.433706 -0.738221 -1.787598
  H 5.197708 -0.073694 -0.132982
  H 4.890906 -2.325064 -3.404854
  H 4.891160 -0.708342 -4.053502
  H 5.521365 -0.364620 -0.856781
 17
 0.000000
  H 1.870814 -0.068075 -0.118776
  C 2.905801 0.033215 0.133283
  C 3.343770 0.562332 1.450208
  H 2.581737 0.842366 2.147258
  C 3.818474 -0.356924 -0.838004
  C 4.563090 -0.385496 -0.909385
  C 4.960805 -0.814518 -1.978947
  C 4.429090 -1.333056 -3.271586
  H 3.376651 -1.404805 -3.450821
  O 5.597538 -0.781400 -1.896597
  H 3.979682 1.437245 1.272550
  H 3.979718 -0.192261 1.927237
  H 3.602803 -0.746342 -1.807882
  H 5.230364 -0.066968 -0.116230
  H 4.871289 -2.326684 -3.408882
  H 4.871537 -0.709965 -4.057537
  H 5.289076 -0.357794 -0.839707
 17
 0.000000
  H 1.920984 -0.081658 -0.152631
  C 2.946933 0.031688 0.129470
  C 3.340117 0.565665 1.458518
  H 2.554864 0.836646 2.133017
  C 3.892032 -0.347580 -0.814742
  C 4.583884 -0.373957 -0.880631
  C 4.964463 -0.821380 -1.996051
  C 4.422782 -1.338491 -3.285120
  H 3.368987 -1.407432 -3.457351
  O 5.532515 -0.789387 -1.916486
  H 3.970661 1.447988 1.299324
  H 3.970677 -0.181520 1.954005
  H 3.737964 -0.750963 -1.819424
  H 5.261782 -0.058557 -0.095273
  H 4.861407 -2.333294 -3.425341
  H 4.861653 -0.716578 -4.074004
  H 5.089290 -0.360601 -0.846660
 17
 0.000000
  H 1.954243 -0.087323 -0.166755
  C 2.972474 0.035309 0.138486
  C 3.330606 0.572698 1.476043
  H 2.527856 0.836464 2.132568
  C 3.942112 -0.335260 -0.784055
  C 4.603400 -0.361181 -0.848786
  C 4.974918 -0.832612 -2.024047
  C 4.425170 -1.348546 -3.310169
  H 3.370313 -1.415206 -3.476709
  O 5.493824 -0.801471 -1.946588
  H 3.956553 1.460729 1.331073
  H 3.956552 -0.168780 1.985752
  H 3.840940 -0.754100 -1.827249
  H 5.291461 -0.048848 -0.071076
  H 4.860878 -2.344296 -3.452746
  H 4.861122 -0.727583 -4.101416
  H 4.917314 -0.370759 -0.871947
 17
 0.000000
  H 1.970552 -0.085461 -0.162119
  C 2.982946 0.043709 0.159414
  C 3.316105 0.583324 1.502517
  H 2.501243 0.841883 2.146066
  C 3.969627 -0.320563 -0.747434
  C 4.620925 -0.347645 -0.815047
  C 4.991056 -0.847702 -2.061653
  C 4.436173 -1.362878 -3.345872
  H 3.380658 -1.428081 -3.508781
  O 5.478527 -0.816754 -1.984664
  H 3.938567 1.475374 1.367564
  H 3.938554 -0.154135 2.022242
  H 3.912175 -0.758113 -1.837235
  H 5.318499 -0.038253 -0.044670
  H 4.870011 -2.359229 -3.489942
  H 4.870256 -0.742519 -4.138619
  H 4.767899 -0.386006 -0.909927
 17
 0.000000
  H 1.969668 -0.076386 -0.139508
  C 2.978596 0.056496 0.191274
  C 3.297466 0.597311 1.537361
  H 2.475804 0.852866 2.173421
  C 3.974866 -0.304136 -0.706499
  C 4.635146 -0.334026 -0.781099
  C 5.012031 -0.865948 -2.107124
  C 4.455989 -1.380957 -3.390909
  H 3.400328 -1.445830 -3.552998
  O 5.484324 -0.834276 -2.028325
  H 3.917857 1.491642 1.408093
  H 3.917836 -0.137866 2.062774
  H 3.950812 -0.765543 -1.855720
  H 5.341291 -0.027342 -0.017477
  H 4.889404 -2.377444 -3.535312
  H 4.889651 -0.760736 -4.183996
  H 4.636071 -0.404045 -0.954871
 17
 0.000000
  H 1.952717 -0.061338 -0.102011
  C 2.960697 0.072538 0.231247
  C 3.275728 0.613669 1.578111
  H 2.452255 0.868415 2.212150
  C 3.959524 -0.287114 -0.664075
  C 4.644180 -0.321336 -0.749468
  C 5.036205 -0.885866 -2.156759
  C 4.483789 -1.401421 -3.441889
  H 3.428588 -1.467325 -3.606543
  O 5.507069 -0.852448 -2.073608
  H 3.895553 1.508612 1.450363
  H 3.895531 -0.120894 2.105049
  H 3.957306 -0.778154 -1.887099
  H 5.357447 -0.016943 0.008433
  H 4.918526 -2.397486 -3.585231
  H 4.918772 -0.780781 -4.233923
  H 4.517543 -0.422627 -1.001165
 17
 0.000000
  H 1.923209 -0.042857 -0.055955
  C 2.932194 0.089967 0.274677
  C 3.251295 0.630773 1.620714
  H 2.429742 0.886380 2.256893
  C 3.928311 -0.270730 -0.623241
  C 4.646534 -0.310344 -0.722070
  C 5.061027 -0.905594 -2.205919
  C 4.517065 -1.422401 -3.494149
  H 3.462966 -1.490702 -3.664772
  O 5.539465 -0.869505 -2.116114
  H 3.871720 1.525067 1.491348
  H 3.871700 -0.104437 2.146040
  H 3.937212 -0.795705 -1.930775
  H 5.365072 -0.007673 0.031529
  H 4.954867 -2.417476 -3.635017
  H 4.955113 -0.800774 -4.283715
  H 4.406632 -0.440773 -1.046372
