 23
 0.000000
  C 1.028121 0.108285 0.351852
  C 2.500296 0.130097 0.422857
  C 3.235539 0.617896 1.607757
  C 2.413228 1.111316 2.794518
  C 3.327153 1.575190 3.924801
  C 3.172612 -0.334559 -0.700874
  C 4.552643 -0.405978 -0.897334
  C 5.121271 -0.857947 -2.066848
  H 4.552971 -1.194399 -2.924954
  O 6.403075 -0.933452 -2.283054
  H 0.544486 0.486326 1.244720
  H 0.684131 -0.910816 0.168895
  H 0.687632 0.698851 -0.502545
  H 3.900305 1.429226 1.288953
  H 3.895083 -0.185419 1.956445
  H 1.771933 0.311431 3.168743
  H 1.777681 1.945878 2.493343
  H 3.959816 0.762175 4.273945
  H 2.736848 1.925587 4.767806
  H 3.965615 2.393652 3.599731
  H 2.547386 -0.667454 -1.519420
  H 5.211062 -0.092685 -0.097638
  H 6.957284 -0.636714 -1.532821
 23
 -0.477289
  C 1.027442 0.093985 0.365557
  C 2.497213 0.097501 0.425904
  C 3.231945 0.603908 1.606176
  C 2.407841 1.104957 2.788172
  C 3.320999 1.598115 3.906868
  C 3.179456 -0.365888 -0.696271
  C 4.567159 -0.412698 -0.868070
  C 5.127456 -0.869420 -2.042226
  H 4.504232 -1.204835 -2.863671
  O 6.395322 -0.949266 -2.302678
  H 0.555372 0.254783 1.326371
  H 0.654696 -0.821556 -0.090421
  H 0.721199 0.903074 -0.303638
  H 3.890543 1.416785 1.278508
  H 3.902306 -0.187842 1.960362
  H 1.780300 0.302439 3.179723
  H 1.760403 1.925660 2.475913
  H 3.975512 0.802305 4.255605
  H 2.731174 1.941025 4.753404
  H 3.937379 2.428748 3.570171
  H 2.578015 -0.714009 -1.525947
  H 5.219450 -0.088718 -0.069566
  H 6.981400 -0.649859 -1.578442
 23
 1.099204
  C 1.034046 0.079876 0.387090
  C 2.501138 0.076686 0.428618
  C 3.238937 0.577805 1.609496
  C 2.406005 1.110856 2.771578
  C 3.310618 1.603501 3.897513
  C 3.170713 -0.401728 -0.690095
  C 4.552558 -0.367862 -0.893075
  C 5.121812 -0.911567 -2.021737
  H 4.507779 -1.377239 -2.784350
  O 6.387318 -0.934825 -2.304374
  H 0.541268 0.088434 1.349151
  H 0.614850 -0.641420 -0.305118
  H 0.887148 1.067446 -0.072660
  H 3.926796 1.367444 1.288944
  H 3.870787 -0.237183 1.980294
  H 1.758132 0.326223 3.165584
  H 1.779065 1.938788 2.437214
  H 3.945789 0.801451 4.266739
  H 2.714551 1.968330 4.730239
  H 3.946913 2.418116 3.559219
  H 2.575229 -0.845195 -1.475994
  H 5.194384 0.083120 -0.150146
  H 6.961811 -0.513500 -1.633843
 23
 11.360593
  C 1.015072 0.009230 0.438212
  C 2.471823 0.117398 0.400373
  C 3.233182 0.626556 1.575291
  C 2.411288 1.138786 2.754240
  C 3.329637 1.572917 3.894113
  C 3.143862 -0.447005 -0.680554
  C 4.528138 -0.373512 -0.885433
  C 5.116466 -0.910162 -2.008210
  H 4.522575 -1.399744 -2.770550
  O 6.385687 -0.902792 -2.284334
  H 0.483598 0.173099 1.358644
  H 0.554010 -0.648401 -0.286445
  H 1.099147 1.010943 -0.084200
  H 3.903013 1.429495 1.253337
  H 3.868079 -0.192232 1.927798
  H 1.748989 0.354687 3.124509
  H 1.804152 1.993678 2.450976
  H 3.970938 0.753784 4.210712
  H 2.744138 1.890528 4.753068
  H 3.961192 2.406195 3.591740
  H 2.570681 -0.963807 -1.436488
  H 5.155716 0.108455 -0.152066
  H 6.939312 -0.466492 -1.606733
 23
 29.361472
  C 0.999556 -0.046577 0.484891
  C 2.420854 0.104837 0.401365
  C 3.215807 0.617332 1.569864
  C 2.406075 1.116049 2.767133
  C 3.339272 1.589820 3.877851
  C 3.119399 -0.448947 -0.693848
  C 4.495793 -0.362435 -0.899449
  C 5.094913 -0.914172 -2.003538
  H 4.514143 -1.415946 -2.765985
  O 6.383084 -0.908083 -2.267570
  H 0.446201 0.196077 1.371837
  H 0.478878 -0.567604 -0.303470
  H 1.501612 0.980380 -0.062635
  H 3.865966 1.430014 1.236514
  H 3.860491 -0.197016 1.906896
  H 1.779121 0.315116 3.160844
  H 1.765304 1.949683 2.474511
  H 3.998580 0.787219 4.200379
  H 2.766420 1.919869 4.740902
  H 3.952635 2.423490 3.543217
  H 2.544862 -0.956371 -1.454740
  H 5.119878 0.123290 -0.164358
  H 6.916617 -0.452862 -1.590800
 23
 39.462973
  C 0.978554 -0.092514 0.517399
  C 2.386546 0.134894 0.395156
  C 3.201077 0.644571 1.568904
  C 2.396181 1.109418 2.782215
  C 3.332427 1.585931 3.888609
  C 3.101416 -0.445367 -0.714889
  C 4.471737 -0.368702 -0.910372
  C 5.076618 -0.929969 -2.010969
  H 4.498074 -1.436874 -2.772278
  O 6.364326 -0.930283 -2.266565
  H 0.432558 0.167611 1.403576
  H 0.441276 -0.580291 -0.278636
  H 1.794860 1.007393 -0.155337
  H 3.828818 1.474633 1.239642
  H 3.864187 -0.161779 1.887635
  H 1.790094 0.290269 3.170823
  H 1.734877 1.933576 2.508849
  H 4.007800 0.790524 4.195387
  H 2.763007 1.896938 4.760969
  H 3.928843 2.432999 3.557117
  H 2.519439 -0.960191 -1.465528
  H 5.092813 0.123396 -0.176316
  H 6.895979 -0.471540 -1.589284
 23
 41.634255
  C 0.977936 -0.114880 0.546036
  C 2.369517 0.177166 0.392668
  C 3.196882 0.679283 1.572023
  C 2.394729 1.114458 2.797446
  C 3.331655 1.586188 3.905300
  C 3.095536 -0.424973 -0.729365
  C 4.461548 -0.363443 -0.922435
  C 5.058679 -0.940489 -2.023256
  H 4.470047 -1.446607 -2.778662
  O 6.338817 -0.966148 -2.276043
  H 0.442127 0.124185 1.443044
  H 0.432914 -0.578609 -0.257002
  H 2.080873 1.035193 -0.299111
  H 3.808179 1.524124 1.252170
  H 3.872922 -0.121830 1.876394
  H 1.801634 0.281775 3.177207
  H 1.720373 1.932638 2.538399
  H 4.021960 0.796113 4.192264
  H 2.763800 1.871865 4.787413
  H 3.911378 2.448985 3.584825
  H 2.503363 -0.951067 -1.464797
  H 5.086767 0.131220 -0.193462
  H 6.884210 -0.512886 -1.604036
 23
 43.184111
  C 0.979088 -0.108042 0.569526
  C 2.348460 0.183151 0.414297
  C 3.187088 0.668426 1.587972
  C 2.394333 1.114950 2.815596
  C 3.338719 1.600604 3.910381
  C 3.067659 -0.386747 -0.746139
  C 4.445907 -0.346713 -0.936576
  C 5.031762 -0.938310 -2.031549
  H 4.434210 -1.429482 -2.790227
  O 6.314314 -1.002677 -2.277358
  H 0.458214 0.072941 1.487829
  H 0.414343 -0.524728 -0.245611
  H 2.343772 0.965637 -0.458776
  H 3.809971 1.505969 1.270463
  H 3.852924 -0.142873 1.888730
  H 1.805273 0.285791 3.209485
  H 1.715301 1.927334 2.550018
  H 4.030517 0.814132 4.201814
  H 2.777118 1.897608 4.792351
  H 3.916382 2.459460 3.574709
  H 2.468501 -0.906638 -1.478780
  H 5.077416 0.131640 -0.201221
  H 6.869672 -0.563220 -1.604516
 23
 40.474898
  C 0.984454 -0.078479 0.575750
  C 2.327431 0.168533 0.443325
  C 3.173556 0.673715 1.589533
  C 2.400146 1.099708 2.837646
  C 3.360574 1.593467 3.915064
  C 3.033219 -0.335003 -0.762157
  C 4.433389 -0.320413 -0.945874
  C 5.018149 -0.955414 -2.006169
  H 4.423466 -1.471581 -2.749881
  O 6.303297 -1.034550 -2.245130
  H 0.458261 0.137047 1.484954
  H 0.406822 -0.485343 -0.235394
  H 2.502906 0.845273 -0.664732
  H 3.768114 1.527904 1.260517
  H 3.868335 -0.120646 1.872355
  H 1.832630 0.258275 3.236557
  H 1.703170 1.902827 2.592093
  H 4.072976 0.816982 4.184728
  H 2.813504 1.872409 4.812219
  H 3.914507 2.465381 3.574338
  H 2.435850 -0.893722 -1.470828
  H 5.059880 0.183311 -0.224601
  H 6.856482 -0.577247 -1.583732
 23
 30.759429
  C 0.982014 -0.061211 0.581530
  C 2.307328 0.170772 0.470129
  C 3.162856 0.688576 1.585300
  C 2.414555 1.077664 2.861241
  C 3.393040 1.573180 3.921421
  C 2.992750 -0.263472 -0.792214
  C 4.417179 -0.279639 -0.954922
  C 5.012738 -0.986488 -1.960450
  H 4.425831 -1.553206 -2.673557
  O 6.298152 -1.078289 -2.181155
  H 0.441349 0.156746 1.482993
  H 0.407227 -0.471734 -0.230321
  H 2.600237 0.824371 -0.928606
  H 3.719079 1.566147 1.246562
  H 3.894710 -0.084909 1.834255
  H 1.874229 0.217481 3.258064
  H 1.694902 1.869599 2.647321
  H 4.130066 0.808636 4.156360
  H 2.864717 1.821640 4.838427
  H 3.916840 2.464310 3.583042
  H 2.405524 -0.890041 -1.453714
  H 5.033098 0.270978 -0.259092
  H 6.847729 -0.576873 -1.548004
 23
 21.512394
  C 0.979658 -0.064501 0.588667
  C 2.296367 0.176917 0.478395
  C 3.159731 0.701037 1.573608
  C 2.438888 1.051206 2.875097
  C 3.432048 1.559740 3.915240
  C 2.947632 -0.166664 -0.834061
  C 4.393009 -0.226645 -0.954525
  C 5.003726 -1.009456 -1.893233
  H 4.426096 -1.618938 -2.578899
  O 6.290243 -1.128034 -2.077341
  H 0.435858 0.108271 1.499137
  H 0.405497 -0.454201 -0.234378
  H 2.629906 0.833900 -1.220535
  H 3.679936 1.598992 1.228882
  H 3.925070 -0.052215 1.785920
  H 1.933540 0.169581 3.271904
  H 1.690574 1.824038 2.692707
  H 4.196651 0.813377 4.119265
  H 2.922284 1.781061 4.849714
  H 3.920683 2.470225 3.575468
  H 2.399328 -0.895623 -1.425247
  H 4.996563 0.365998 -0.283163
  H 6.836791 -0.587664 -1.473123
 23
 18.600123
  C 0.954845 0.001888 0.581902
  C 2.284859 0.176827 0.477921
  C 3.152262 0.707331 1.563530
  C 2.452458 1.047504 2.877557
  C 3.462706 1.531826 3.912886
  C 2.917223 -0.176777 -0.833858
  C 4.375314 -0.209451 -0.937850
  C 5.011956 -0.993227 -1.857493
  H 4.456991 -1.636542 -2.531167
  O 6.302255 -1.077066 -2.033882
  H 0.415409 0.189129 1.491977
  H 0.368382 -0.355077 -0.247580
  H 2.552447 0.656335 -1.465434
  H 3.654519 1.611020 1.204683
  H 3.935708 -0.032473 1.760768
  H 1.941729 0.165579 3.267547
  H 1.709501 1.830081 2.715731
  H 4.216247 0.771503 4.105837
  H 2.964484 1.755823 4.852884
  H 3.963575 2.436363 3.575035
  H 2.456008 -1.062662 -1.276888
  H 4.960710 0.420873 -0.285142
  H 6.830489 -0.508404 -1.439467
 23
 18.413536
  C 0.938108 0.083145 0.567057
  C 2.280378 0.176275 0.481851
  C 3.150505 0.694070 1.576674
  C 2.449935 1.064147 2.880149
  C 3.464164 1.518136 3.923157
  C 2.917631 -0.264206 -0.795078
  C 4.380394 -0.242181 -0.913596
  C 5.022964 -0.923993 -1.905789
  H 4.476667 -1.518053 -2.629508
  O 6.314112 -0.958817 -2.101885
  H 0.395765 0.353490 1.453694
  H 0.347211 -0.279829 -0.257576
  H 2.499303 0.394893 -1.577491
  H 3.678993 1.579926 1.211429
  H 3.912420 -0.062090 1.791630
  H 1.904307 0.201384 3.269153
  H 1.735078 1.873090 2.707499
  H 4.176450 0.728121 4.141448
  H 2.963341 1.781678 4.848542
  H 4.012288 2.391322 3.578435
  H 2.523904 -1.245107 -1.090215
  H 4.962094 0.342770 -0.218014
  H 6.834065 -0.437769 -1.462068
 23
 18.376149
  C 0.939386 0.082338 0.568077
  C 2.281743 0.178637 0.480401
  C 3.150102 0.692878 1.572468
  C 2.448862 1.062198 2.878989
  C 3.464200 1.519574 3.922981
  C 2.918463 -0.260206 -0.796216
  C 4.378502 -0.240339 -0.912881
  C 5.021696 -0.925757 -1.903869
  H 4.475341 -1.521078 -2.627346
  O 6.311466 -0.962178 -2.098397
  H 0.399227 0.344569 1.458431
  H 0.347180 -0.273236 -0.257510
  H 2.501944 0.398455 -1.579013
  H 3.678969 1.580007 1.207246
  H 3.912681 -0.064744 1.785697
  H 1.906477 0.199975 3.267971
  H 1.734034 1.866578 2.707478
  H 4.180606 0.729469 4.141210
  H 2.961719 1.782856 4.852049
  H 4.010153 2.394773 3.577549
  H 2.524349 -1.240949 -1.091463
  H 4.960309 0.345431 -0.217178
  H 6.832669 -0.438850 -1.457177
