 26
 0.000000
  C 0.957317 0.054088 0.187898
  C 2.459958 0.060715 0.096128
  C 3.263629 -0.010441 1.381551
  C 2.499259 -0.091040 2.701050
  C 3.466774 -0.155762 3.878408
  C 3.075587 0.127119 -1.100222
  C 2.327749 0.201094 -2.402762
  H 1.244777 0.197126 -2.312660
  C 4.524783 0.132499 -1.222084
  C 5.218811 0.195497 -2.358684
  O 6.575286 0.198118 -2.434533
  H 0.608098 0.005418 1.212778
  H 0.538728 -0.808831 -0.328816
  H 0.539421 0.962245 -0.246455
  H 3.908954 0.873402 1.432378
  H 3.916843 -0.888300 1.329832
  H 1.868350 -0.982228 2.718759
  H 1.860679 0.786458 2.822772
  H 4.106515 -1.032759 3.804199
  H 2.918673 -0.213128 4.816233
  H 4.098741 0.729505 3.907424
  H 2.618347 -0.642300 -3.028893
  H 2.620415 1.108650 -2.930522
  H 5.094783 0.080552 -0.305305
  H 4.790782 0.251344 -3.345313
  H 6.948597 0.147783 -1.545313
 26
 5.860373
  C 0.961353 0.099236 0.189591
  C 2.425924 0.069033 0.089603
  C 3.264824 0.005080 1.401071
  C 2.499686 -0.103188 2.708720
  C 3.464246 -0.158153 3.888270
  C 3.059550 0.131493 -1.099409
  C 2.314749 0.211917 -2.409555
  H 1.240482 0.217867 -2.279414
  C 4.512145 0.118242 -1.212596
  C 5.206284 0.175616 -2.356899
  O 6.560281 0.170108 -2.438849
  H 0.568528 0.011639 1.196925
  H 0.804707 -0.805200 -0.379095
  H 0.501905 0.962754 -0.288455
  H 3.886743 0.900183 1.454914
  H 3.934894 -0.853570 1.339697
  H 1.888181 -1.009156 2.713054
  H 1.843043 0.761302 2.834441
  H 4.123655 -1.020539 3.805509
  H 2.916794 -0.235708 4.825023
  H 4.077707 0.740452 3.924277
  H 2.579737 -0.637826 -3.038493
  H 2.597792 1.119919 -2.941325
  H 5.081489 0.062274 -0.294522
  H 4.769460 0.235360 -3.339701
  H 6.936754 0.117530 -1.551843
 26
 18.044603
  C 0.973381 0.110187 0.212957
  C 2.418311 0.079888 0.091130
  C 3.282497 0.026815 1.391871
  C 2.493247 -0.110079 2.705227
  C 3.442088 -0.155888 3.899864
  C 3.048179 0.141958 -1.100130
  C 2.306657 0.235664 -2.404496
  H 1.232444 0.257628 -2.277859
  C 4.496706 0.102824 -1.219580
  C 5.184843 0.153382 -2.359932
  O 6.538660 0.130567 -2.444057
  H 0.566492 -0.037442 1.215439
  H 1.047286 -0.784784 -0.365829
  H 0.470653 0.941252 -0.299488
  H 3.881009 0.947424 1.439619
  H 3.975820 -0.821788 1.316289
  H 1.899175 -1.028224 2.692242
  H 1.816712 0.740113 2.827568
  H 4.118899 -1.002265 3.819787
  H 2.883523 -0.252051 4.827660
  H 4.036612 0.753322 3.951253
  H 2.559149 -0.616521 -3.035592
  H 2.601650 1.142754 -2.930972
  H 5.071022 0.038687 -0.302445
  H 4.748117 0.220873 -3.339156
  H 6.912636 0.072603 -1.562123
 26
 32.171003
  C 0.946303 0.140023 0.204282
  C 2.407193 0.080706 0.086696
  C 3.272150 0.023200 1.413882
  C 2.492288 -0.115338 2.714225
  C 3.448577 -0.161026 3.909977
  C 3.054461 0.142830 -1.101145
  C 2.297868 0.237779 -2.406013
  H 1.226064 0.255034 -2.266431
  C 4.496581 0.104329 -1.223277
  C 5.182506 0.151741 -2.368858
  O 6.542794 0.119154 -2.458199
  H 0.520739 -0.005312 1.183187
  H 1.216887 -0.760035 -0.339063
  H 0.442235 0.914913 -0.354128
  H 3.858225 0.942286 1.460824
  H 3.963304 -0.818401 1.341782
  H 1.897615 -1.038132 2.701012
  H 1.812817 0.736324 2.838907
  H 4.127295 -1.006877 3.827326
  H 2.892690 -0.258990 4.840107
  H 4.041962 0.748795 3.960578
  H 2.544723 -0.610885 -3.042515
  H 2.581743 1.145191 -2.933687
  H 5.074392 0.043672 -0.309077
  H 4.742703 0.218032 -3.350390
  H 6.920043 0.061023 -1.573661
 26
 45.376125
  C 0.930803 0.168762 0.240637
  C 2.392746 0.085217 0.091505
  C 3.246480 0.022050 1.389882
  C 2.490743 -0.120550 2.697788
  C 3.461371 -0.168576 3.869313
  C 3.043594 0.143993 -1.101649
  C 2.287102 0.233190 -2.417644
  H 1.212975 0.244417 -2.285987
  C 4.492499 0.104274 -1.207347
  C 5.194771 0.145295 -2.346069
  O 6.541432 0.115997 -2.411956
  H 0.516815 0.030382 1.223094
  H 1.342721 -0.726160 -0.254222
  H 0.399189 0.901851 -0.354762
  H 3.829945 0.941615 1.429860
  H 3.939595 -0.818016 1.309373
  H 1.900133 -1.039777 2.692341
  H 1.817269 0.726700 2.836075
  H 4.136076 -1.009068 3.774368
  H 2.924270 -0.268983 4.804721
  H 4.053461 0.738377 3.912684
  H 2.541901 -0.624230 -3.056255
  H 2.568469 1.146882 -2.952548
  H 5.064698 0.048768 -0.279786
  H 4.775574 0.205104 -3.325690
  H 6.905010 0.065198 -1.512718
 26
 54.168254
  C 0.926092 0.194379 0.241887
  C 2.393040 0.080618 0.084724
  C 3.244752 0.015529 1.391821
  C 2.478695 -0.123550 2.708350
  C 3.451497 -0.175393 3.887351
  C 3.050364 0.141573 -1.113050
  C 2.292699 0.233017 -2.417824
  H 1.219825 0.234982 -2.276278
  C 4.489781 0.104276 -1.221558
  C 5.183284 0.146133 -2.359807
  O 6.558065 0.120498 -2.435661
  H 0.511972 0.080221 1.218815
  H 1.443053 -0.715792 -0.191670
  H 0.387333 0.864443 -0.397363
  H 3.831348 0.937260 1.430349
  H 3.940013 -0.827202 1.316166
  H 1.881680 -1.042080 2.703336
  H 1.807480 0.728739 2.846428
  H 4.126309 -1.024437 3.794004
  H 2.909273 -0.272495 4.825943
  H 4.049749 0.732559 3.930688
  H 2.548326 -0.615327 -3.059322
  H 2.562590 1.147276 -2.950164
  H 5.063215 0.051783 -0.302203
  H 4.750330 0.203863 -3.345905
  H 6.925831 0.073770 -1.543951
 26
 60.505269
  C 0.920321 0.222025 0.255921
  C 2.389949 0.077731 0.085642
  C 3.239185 0.011257 1.385841
  C 2.474697 -0.123776 2.704906
  C 3.450470 -0.183999 3.882969
  C 3.048315 0.140220 -1.119193
  C 2.288940 0.228887 -2.418386
  H 1.217790 0.219632 -2.273133
  C 4.494995 0.106107 -1.226328
  C 5.191263 0.146830 -2.363861
  O 6.557036 0.125883 -2.434756
  H 0.510965 0.129167 1.232171
  H 1.520982 -0.709734 -0.120332
  H 0.365802 0.833510 -0.427296
  H 3.827771 0.928998 1.420291
  H 3.930541 -0.831499 1.309173
  H 1.869618 -1.038935 2.700702
  H 1.809559 0.733812 2.846316
  H 4.117329 -1.036423 3.787590
  H 2.909711 -0.277646 4.821512
  H 4.054399 0.718216 3.925384
  H 2.551278 -0.618957 -3.065837
  H 2.549924 1.150668 -2.951060
  H 5.070373 0.058760 -0.303390
  H 4.761424 0.199911 -3.346274
  H 6.923770 0.084233 -1.533808
 26
 64.962389
  C 0.915674 0.262285 0.265154
  C 2.386400 0.079658 0.093260
  C 3.239662 0.009486 1.386419
  C 2.480673 -0.124224 2.707584
  C 3.454473 -0.198866 3.871747
  C 3.053894 0.141352 -1.122535
  C 2.301662 0.217513 -2.438370
  H 1.233604 0.191580 -2.304367
  C 4.466523 0.112029 -1.212663
  C 5.176424 0.148013 -2.352327
  O 6.546699 0.134784 -2.412347
  H 0.499669 0.200206 1.248041
  H 1.583728 -0.708668 -0.049765
  H 0.356549 0.797868 -0.460754
  H 3.835118 0.926079 1.421004
  H 3.928185 -0.838648 1.303772
  H 1.871672 -1.025857 2.702514
  H 1.829407 0.733053 2.855582
  H 4.111404 -1.056989 3.768460
  H 2.917891 -0.291099 4.810582
  H 4.066491 0.696816 3.914217
  H 2.581192 -0.625256 -3.082137
  H 2.553498 1.140683 -2.971819
  H 5.030487 0.073716 -0.285055
  H 4.750022 0.192633 -3.345874
  H 6.900062 0.103351 -1.522052
 26
 68.397098
  C 0.912145 0.300142 0.252275
  C 2.382567 0.074848 0.089285
  C 3.243812 0.004856 1.401449
  C 2.481150 -0.124465 2.708808
  C 3.454483 -0.212166 3.884837
  C 3.053506 0.138904 -1.130138
  C 2.293636 0.205973 -2.424804
  H 1.211716 0.164488 -2.275958
  C 4.484298 0.115119 -1.229664
  C 5.190306 0.151795 -2.369663
  O 6.556678 0.148736 -2.431223
  H 0.484993 0.263971 1.226504
  H 1.629168 -0.719874 -0.009697
  H 0.343624 0.779459 -0.526279
  H 3.842567 0.918520 1.438779
  H 3.926041 -0.847560 1.319553
  H 1.858738 -1.026755 2.696069
  H 1.833574 0.744467 2.854920
  H 4.102685 -1.074619 3.783519
  H 2.912834 -0.301741 4.821084
  H 4.075391 0.676837 3.933589
  H 2.576717 -0.625893 -3.067622
  H 2.526873 1.126257 -2.954577
  H 5.050559 0.083295 -0.311550
  H 4.764897 0.191615 -3.355949
  H 6.914658 0.122872 -1.530922
 26
 71.403978
  C 0.916124 0.343777 0.266603
  C 2.379838 0.070757 0.097228
  C 3.240666 0.002489 1.398003
  C 2.477550 -0.123726 2.700783
  C 3.442983 -0.223710 3.872191
  C 3.053032 0.137211 -1.128977
  C 2.285798 0.190288 -2.424769
  H 1.215352 0.128397 -2.273101
  C 4.496445 0.119696 -1.230488
  C 5.201011 0.154765 -2.371181
  O 6.565207 0.157779 -2.431458
  H 0.476842 0.308465 1.261177
  H 1.674357 -0.727889 0.032429
  H 0.344799 0.761916 -0.527881
  H 3.842757 0.910783 1.438905
  H 3.910928 -0.845362 1.316248
  H 1.852992 -1.011357 2.684135
  H 1.839107 0.747907 2.846910
  H 4.097289 -1.112558 3.765568
  H 2.890889 -0.311613 4.817110
  H 4.080836 0.674750 3.924031
  H 2.580739 -0.636011 -3.067673
  H 2.501305 1.120064 -2.960917
  H 5.078411 0.094585 -0.298051
  H 4.772303 0.188611 -3.363748
  H 6.920918 0.137408 -1.533465
 26
 71.534611
  C 0.925251 0.422465 0.264983
  C 2.372363 0.059031 0.099140
  C 3.247185 -0.000020 1.401761
  C 2.485233 -0.122907 2.707517
  C 3.453870 -0.238404 3.880109
  C 3.054764 0.135031 -1.135611
  C 2.290070 0.174466 -2.429532
  H 1.220745 0.074515 -2.278850
  C 4.478622 0.120488 -1.227638
  C 5.194214 0.158693 -2.366462
  O 6.563372 0.171068 -2.417726
  H 0.459890 0.363613 1.227157
  H 1.704887 -0.767232 0.063562
  H 0.338436 0.755931 -0.560915
  H 3.850923 0.907610 1.434889
  H 3.919008 -0.857126 1.314839
  H 1.846247 -1.007791 2.688827
  H 1.858487 0.752483 2.857894
  H 4.084875 -1.115707 3.772235
  H 2.909210 -0.322486 4.817145
  H 4.093561 0.638577 3.934036
  H 2.614391 -0.637908 -3.082952
  H 2.472940 1.114407 -2.955244
  H 5.043795 0.100134 -0.305752
  H 4.775048 0.191851 -3.353790
  H 6.913012 0.152231 -1.519600
 26
 72.502360
  C 0.937522 0.478388 0.269756
  C 2.372711 0.051775 0.109295
  C 3.244887 -0.003832 1.400062
  C 2.481886 -0.128268 2.711878
  C 3.453851 -0.250273 3.888612
  C 3.058202 0.130691 -1.136830
  C 2.286092 0.157964 -2.434628
  H 1.214114 0.033427 -2.278351
  C 4.479341 0.120999 -1.225668
  C 5.201388 0.159743 -2.366294
  O 6.563244 0.179281 -2.411655
  H 0.460257 0.383638 1.225025
  H 1.744043 -0.784565 0.073694
  H 0.353251 0.779951 -0.577389
  H 3.842939 0.895543 1.437268
  H 3.915225 -0.858485 1.314196
  H 1.840499 -1.007920 2.689633
  H 1.856241 0.749699 2.862917
  H 4.084392 -1.133360 3.778319
  H 2.911910 -0.334983 4.821369
  H 4.102387 0.631000 3.945151
  H 2.629015 -0.653856 -3.100581
  H 2.445311 1.105393 -2.960090
  H 5.038479 0.104964 -0.316502
  H 4.778715 0.189470 -3.366254
  H 6.909315 0.164021 -1.512883
 26
 70.297388
  C 0.977354 0.581127 0.270267
  C 2.369958 0.036584 0.114982
  C 3.251248 -0.009903 1.406943
  C 2.484291 -0.134641 2.714365
  C 3.445732 -0.267837 3.886772
  C 3.064949 0.119488 -1.140350
  C 2.278832 0.120296 -2.426744
  H 1.217429 -0.061942 -2.255563
  C 4.477379 0.121316 -1.230272
  C 5.198091 0.163514 -2.373106
  O 6.562883 0.199437 -2.419278
  H 0.447191 0.417055 1.187400
  H 1.776125 -0.831424 0.079916
  H 0.396977 0.846512 -0.593925
  H 3.850228 0.895639 1.439902
  H 3.920597 -0.864107 1.319416
  H 1.834000 -1.015187 2.685852
  H 1.862272 0.748817 2.867111
  H 4.070059 -1.154344 3.774541
  H 2.898038 -0.352472 4.820049
  H 4.095658 0.603855 3.948386
  H 2.651565 -0.656860 -3.099480
  H 2.379862 1.079309 -2.942060
  H 5.042633 0.114572 -0.309413
  H 4.775330 0.186945 -3.368204
  H 6.911226 0.189353 -1.520788
 26
 69.072037
  C 1.013056 0.663135 0.274418
  C 2.367361 0.024474 0.125196
  C 3.249336 -0.018708 1.407272
  C 2.480215 -0.146764 2.708463
  C 3.436764 -0.289650 3.885813
  C 3.067504 0.105443 -1.141915
  C 2.274372 0.078263 -2.413893
  H 1.227098 -0.155406 -2.228119
  C 4.474549 0.125346 -1.232813
  C 5.194728 0.166094 -2.379763
  O 6.560447 0.216659 -2.429664
  H 0.445563 0.450389 1.160946
  H 1.805416 -0.857945 0.086529
  H 0.452891 0.930204 -0.600934
  H 3.847836 0.889721 1.443401
  H 3.920807 -0.872668 1.319495
  H 1.829219 -1.020089 2.671656
  H 1.862164 0.735882 2.860986
  H 4.056997 -1.176355 3.772558
  H 2.885096 -0.375827 4.815542
  H 4.087482 0.575697 3.953874
  H 2.675202 -0.674018 -3.095542
  H 2.321859 1.042653 -2.921988
  H 5.042354 0.130174 -0.309753
  H 4.771945 0.174299 -3.362858
  H 6.912341 0.218329 -1.533894
