 20
 0.000000
  C 0.951367 0.054954 0.200086
  C 2.449490 0.056286 0.074646
  C 3.243838 -0.000056 1.353402
  H 2.612606 -0.035162 2.235748
  C 3.059437 0.115489 -1.120248
  C 2.353509 0.204875 -2.443094
  H 1.271740 0.181738 -2.369938
  C 4.512615 0.126206 -1.220570
  C 5.226870 0.192060 -2.343144
  O 6.584774 0.199742 -2.391591
  H 0.643145 0.007040 1.241650
  H 0.518969 -0.804909 -0.310898
  H 0.524402 0.961453 -0.228016
  H 3.893052 0.875904 1.431073
  H 3.879329 -0.886543 1.364056
  H 2.668003 -0.623101 -3.077906
  H 2.639907 1.130294 -2.942448
  H 5.071158 0.075723 -0.295510
  H 4.819035 0.247240 -3.339056
  H 6.940972 0.150254 -1.495141
 20
 -0.337306
  C 0.967987 -0.013161 0.182250
  C 2.467228 0.046833 0.066602
  C 3.228740 0.052139 1.365945
  H 2.568780 0.288392 2.196581
  C 3.090310 0.129560 -1.122551
  C 2.354483 0.225633 -2.431155
  H 1.278842 0.207037 -2.298106
  C 4.541118 0.113119 -1.226444
  C 5.245077 0.242876 -2.354259
  O 6.601431 0.200544 -2.429362
  H 0.665460 -0.120397 1.220549
  H 0.568212 -0.861343 -0.372787
  H 0.506920 0.893810 -0.208872
  H 4.018987 0.800959 1.340700
  H 3.679850 -0.921478 1.562073
  H 2.634399 -0.601440 -3.081985
  H 2.619945 1.155126 -2.932600
  H 5.099024 -0.042991 -0.312230
  H 4.817848 0.397359 -3.331848
  H 6.970258 0.061767 -1.548354
 20
 0.231171
  C 0.973535 -0.103272 0.184918
  C 2.467897 0.023481 0.067166
  C 3.214050 0.108165 1.371111
  H 2.590174 0.593591 2.119454
  C 3.093594 0.145343 -1.115928
  C 2.355069 0.262588 -2.422239
  H 1.280504 0.277916 -2.277545
  C 4.542921 0.092311 -1.230040
  C 5.243794 0.287093 -2.347154
  O 6.594954 0.182695 -2.441419
  H 0.686714 -0.252441 1.222647
  H 0.610698 -0.952275 -0.393428
  H 0.467289 0.791692 -0.177593
  H 4.107708 0.713265 1.242668
  H 3.487351 -0.877184 1.748794
  H 2.603151 -0.569751 -3.079324
  H 2.643848 1.186304 -2.920691
  H 5.098215 -0.172274 -0.339254
  H 4.817286 0.548418 -3.301800
  H 6.962814 -0.051050 -1.579805
 20
 1.531470
  C 0.986825 -0.205651 0.189894
  C 2.468270 0.020051 0.069990
  C 3.201310 0.174111 1.372260
  H 2.645948 0.868759 2.003572
  C 3.094779 0.185455 -1.108804
  C 2.356957 0.317448 -2.414681
  H 1.284258 0.372708 -2.263080
  C 4.541075 0.075618 -1.235279
  C 5.250001 0.322371 -2.338329
  O 6.590148 0.139452 -2.453769
  H 0.721306 -0.398964 1.226204
  H 0.681736 -1.061755 -0.410134
  H 0.414761 0.659807 -0.145843
  H 4.174827 0.617684 1.183625
  H 3.298521 -0.765221 1.914355
  H 2.571246 -0.525524 -3.069933
  H 2.675087 1.228200 -2.918027
  H 5.082218 -0.302516 -0.376581
  H 4.838950 0.697198 -3.261144
  H 6.945096 -0.191085 -1.618860
 20
 6.904928
  C 1.024676 -0.412440 0.179884
  C 2.454045 0.029804 0.076482
  C 3.186165 0.295739 1.360600
  H 2.707705 1.153886 1.841776
  C 3.090983 0.269503 -1.086033
  C 2.360336 0.489428 -2.385525
  H 1.299704 0.649079 -2.215469
  C 4.522464 0.051819 -1.228604
  C 5.250074 0.301098 -2.318868
  O 6.561684 -0.024391 -2.464574
  H 0.776223 -0.624324 1.216576
  H 0.874397 -1.314216 -0.411450
  H 0.323375 0.340633 -0.183246
  H 4.174846 0.655262 1.084015
  H 3.186540 -0.530827 2.064372
  H 2.479409 -0.355688 -3.062714
  H 2.761987 1.374546 -2.873599
  H 5.028156 -0.416690 -0.392373
  H 4.871329 0.760040 -3.217179
  H 6.881260 -0.447640 -1.657527
 20
 18.406451
  C 1.067243 -0.584201 0.166206
  C 2.430271 0.026030 0.084064
  C 3.172746 0.415752 1.332204
  H 2.699724 1.302219 1.771516
  C 3.088865 0.332253 -1.059942
  C 2.371720 0.667968 -2.344232
  H 1.322746 0.878749 -2.153501
  C 4.491432 -0.005058 -1.212647
  C 5.238407 0.215532 -2.295899
  O 6.514943 -0.222122 -2.453763
  H 0.835682 -0.833550 1.198538
  H 1.035890 -1.488792 -0.438682
  H 0.281341 0.080680 -0.199509
  H 4.053550 0.894199 0.895540
  H 3.274110 -0.350822 2.088825
  H 2.434797 -0.136439 -3.077340
  H 2.825414 1.556443 -2.776996
  H 4.947595 -0.542080 -0.389004
  H 4.899502 0.728898 -3.179805
  H 6.799568 -0.677688 -1.652642
 20
 38.421750
  C 1.141259 -0.753033 0.129443
  C 2.410413 0.032481 0.104712
  C 3.134195 0.511753 1.326736
  H 2.756910 1.477833 1.686432
  C 3.101482 0.440266 -1.002094
  C 2.403378 0.853604 -2.278687
  H 1.369172 1.120832 -2.074693
  C 4.455211 -0.030081 -1.192592
  C 5.189722 0.121963 -2.294160
  O 6.424988 -0.419678 -2.475257
  H 0.871418 -0.993823 1.155163
  H 1.267631 -1.674291 -0.438358
  H 0.305089 -0.207471 -0.317890
  H 3.947127 1.002411 0.733510
  H 3.217753 -0.187415 2.146235
  H 2.413369 0.066649 -3.034919
  H 2.908404 1.723821 -2.690515
  H 4.887065 -0.583455 -0.366518
  H 4.876123 0.662195 -3.171112
  H 6.684164 -0.898985 -1.678339
 20
 65.393651
  C 1.161121 -0.826530 0.121399
  C 2.394837 0.004194 0.133285
  C 3.076653 0.549892 1.310459
  H 2.837577 1.573048 1.611456
  C 3.115369 0.457633 -0.960458
  C 2.420320 0.924181 -2.222448
  H 1.390577 1.202079 -2.004535
  C 4.459857 -0.063042 -1.173530
  C 5.187357 0.078827 -2.284428
  O 6.411419 -0.488852 -2.482604
  H 0.874188 -1.086128 1.136855
  H 1.315033 -1.738003 -0.454957
  H 0.329176 -0.286676 -0.338623
  H 3.827261 1.098676 0.465537
  H 3.172409 -0.098085 2.175325
  H 2.416057 0.152845 -2.993160
  H 2.933556 1.796833 -2.620613
  H 4.874235 -0.643735 -0.357550
  H 4.879154 0.635922 -3.152705
  H 6.669401 -0.975401 -1.690070
 20
 79.763715
  C 1.205395 -0.883774 0.118090
  C 2.393328 0.011538 0.179543
  C 2.993317 0.561540 1.332901
  H 2.837883 1.602330 1.580688
  C 3.142785 0.525663 -0.926829
  C 2.427472 0.986716 -2.181043
  H 1.406779 1.279605 -1.946539
  C 4.479075 -0.062800 -1.170881
  C 5.175202 0.030162 -2.300123
  O 6.388689 -0.560982 -2.512820
  H 0.884642 -1.157903 1.120362
  H 1.415648 -1.789050 -0.452762
  H 0.380343 -0.371041 -0.378570
  H 3.786227 1.178844 0.228724
  H 3.048854 -0.044457 2.241052
  H 2.400853 0.195647 -2.929936
  H 2.937481 1.845048 -2.612615
  H 4.899410 -0.628976 -0.346250
  H 4.858467 0.576312 -3.172435
  H 6.659572 -1.028056 -1.713368
 20
 64.111217
  C 1.266058 -0.944897 0.111064
  C 2.397601 0.015507 0.235431
  C 2.885309 0.572002 1.376955
  H 2.785400 1.629262 1.551022
  C 3.182443 0.577732 -0.903539
  C 2.431879 1.063085 -2.124582
  H 1.427007 1.376257 -1.850397
  C 4.512394 -0.071789 -1.181064
  C 5.169924 -0.020894 -2.325725
  O 6.370465 -0.626638 -2.561078
  H 0.906987 -1.243783 1.094043
  H 1.539525 -1.838046 -0.455897
  H 0.453570 -0.454475 -0.424208
  H 3.738635 1.216455 -0.027746
  H 2.886521 0.034513 2.329230
  H 2.363604 0.269593 -2.866124
  H 2.938838 1.912175 -2.578222
  H 4.938013 -0.630753 -0.354548
  H 4.835599 0.514289 -3.197986
  H 6.661998 -1.079523 -1.759539
 20
 37.927386
  C 1.426995 -1.003449 0.050081
  C 2.456981 0.045769 0.275997
  C 2.786940 0.586730 1.450236
  H 2.762947 1.649924 1.608440
  C 3.216340 0.691337 -0.866867
  C 2.429505 1.139629 -2.079191
  H 1.430832 1.455425 -1.785237
  C 4.497102 -0.049912 -1.171110
  C 5.098610 -0.095473 -2.336969
  O 6.254081 -0.768410 -2.593980
  H 1.027921 -1.365107 0.994868
  H 1.804481 -1.850454 -0.526000
  H 0.619303 -0.549722 -0.521855
  H 3.691540 1.434391 -0.174839
  H 2.656677 0.056708 2.390912
  H 2.343470 0.323185 -2.792442
  H 2.918220 1.977299 -2.570691
  H 4.928975 -0.579662 -0.329905
  H 4.745388 0.406794 -3.222137
  H 6.556081 -1.205226 -1.788746
 20
 20.965948
  C 1.518238 -1.004515 0.001405
  C 2.479004 0.099337 0.291626
  C 2.710663 0.606548 1.499182
  H 2.873628 1.656949 1.671819
  C 3.225247 0.756634 -0.851621
  C 2.408181 1.146723 -2.069552
  H 1.412887 1.465747 -1.767935
  C 4.481778 -0.025907 -1.150775
  C 5.040328 -0.170081 -2.341838
  O 6.188956 -0.857888 -2.591614
  H 1.103623 -1.411992 0.920278
  H 1.970552 -1.812724 -0.575007
  H 0.708667 -0.587550 -0.594910
  H 3.662610 1.597752 -0.279991
  H 2.492675 0.069080 2.413824
  H 2.311974 0.301881 -2.747499
  H 2.880398 1.967538 -2.603048
  H 4.943975 -0.487299 -0.285527
  H 4.651645 0.264080 -3.248932
  H 6.540802 -1.207745 -1.763543
 20
 9.804920
  C 1.603529 -0.981535 -0.052117
  C 2.507982 0.154661 0.304228
  C 2.662872 0.591578 1.545250
  H 3.065432 1.559002 1.790556
  C 3.243681 0.838287 -0.829081
  C 2.388635 1.138785 -2.054004
  H 1.401078 1.476722 -1.747181
  C 4.477702 0.022185 -1.127854
  C 4.989652 -0.212413 -2.325645
  O 6.116444 -0.934877 -2.569336
  H 1.202279 -1.454970 0.840492
  H 2.119619 -1.731206 -0.651784
  H 0.773870 -0.596977 -0.642299
  H 3.623293 1.766486 -0.381387
  H 2.283795 0.025522 2.382805
  H 2.276103 0.253016 -2.673528
  H 2.843885 1.925238 -2.650480
  H 4.972564 -0.380959 -0.251213
  H 4.566930 0.154943 -3.247132
  H 6.486486 -1.246916 -1.733947
 20
 6.248137
  C 1.745336 -1.028490 -0.114201
  C 2.497240 0.199726 0.298246
  C 2.536055 0.619050 1.552127
  H 3.086175 1.497537 1.845475
  C 3.274074 0.907072 -0.793878
  C 2.398356 1.215364 -2.007063
  H 1.463187 1.665102 -1.679230
  C 4.484841 0.071140 -1.115188
  C 4.882225 -0.315730 -2.317103
  O 5.982858 -1.071882 -2.572658
  H 1.383202 -1.570917 0.755601
  H 2.388298 -1.682987 -0.700425
  H 0.889234 -0.759982 -0.732545
  H 3.633702 1.856377 -0.377893
  H 2.017793 0.103861 2.342880
  H 2.171769 0.312501 -2.566795
  H 2.901584 1.917680 -2.667162
  H 5.064118 -0.224249 -0.246522
  H 4.373678 -0.064846 -3.233795
  H 6.432106 -1.279755 -1.743530
