 10
 0.000000
  H -9.229491 -6.452387 4.550243
  C -5.978696 -2.256780 1.746177
  H -2.235376 -8.087774 -18.348777
  C -4.545478 6.809816 3.668608
  H -5.732493 10.313654 15.037318
  H 0.322549 9.862704 -1.584881
  H -2.880181 -3.357407 1.146085
  O 6.696150 -0.761212 -0.290136
  H 12.326414 4.365039 4.954969
  H 12.058977 -4.867743 -10.509892
 10
 111.111000
  H -9.039467 -6.489342 4.475401
  C -5.877108 -2.239612 1.651770
  H -1.882277 -8.081584 -18.391505
  C -4.679219 6.865299 3.554094
  H -6.014088 10.371879 14.905547
  H 0.140077 10.022482 -1.682660
  H -2.602273 -3.166947 1.060180
  O 6.712768 -0.940976 -0.348194
  H 12.438503 4.113403 4.863210
  H 11.999714 -5.210225 -10.540776
 10
 111.111000
  H -8.852769 -6.524478 4.403052
  C -5.775065 -2.224171 1.562495
  H -1.546267 -8.074496 -18.430283
  C -4.798487 6.911689 3.442828
  H -6.270277 10.419589 14.776933
  H -0.028190 10.164718 -1.780117
  H -2.326508 -2.979873 0.975482
  O 6.718291 -1.100756 -0.394245
  H 12.531178 3.884289 4.787382
  H 11.934537 -5.521957 -10.558440
 10
 111.111000
  H -8.673854 -6.557903 4.323742
  C -5.672353 -2.212966 1.469584
  H -1.217623 -8.075668 -18.470435
  C -4.898688 6.947431 3.324839
  H -6.501961 10.459336 14.639852
  H -0.171696 10.284067 -1.884724
  H -2.051740 -2.804282 0.885690
  O 6.714488 -1.241460 -0.430751
  H 12.600996 3.680451 4.728073
  H 11.873996 -5.803771 -10.561495
 10
 111.111000
  H -8.506634 -6.589557 4.237254
  C -5.570361 -2.206943 1.372863
  H -0.898406 -8.086738 -18.512335
  C -4.977195 6.972429 3.200633
  H -6.706311 10.491711 14.494805
  H -0.285146 10.379050 -1.995210
  H -1.778570 -2.646372 0.791435
  O 6.700934 -1.361918 -0.458756
  H 12.645241 3.505668 4.685321
  H 11.820841 -6.051513 -10.551402
