 19
 0.000000
  C 0.977509 0.053412 0.189147
  C 2.480590 0.054477 0.170248
  C 3.259119 -0.018466 1.463028
  C 2.452987 -0.091386 2.755256
  H 3.133146 -0.139203 3.602744
  C 3.105712 0.121248 -1.013064
  H 2.531760 0.172959 -1.929502
  C 4.535489 0.132875 -1.219078
  C 5.104705 0.200654 -2.420360
  H 6.173291 0.208395 -2.557526
  H 0.568727 -0.003157 1.191626
  H 0.594704 -0.798778 -0.371572
  H 0.594705 0.963271 -0.272142
  H 3.909393 0.860135 1.520469
  H 3.909406 -0.897960 1.421266
  H 1.823569 -0.978687 2.777224
  H 1.823563 0.787802 2.876901
  H 5.171666 0.083622 -0.346166
  H 4.533915 0.252226 -3.334337
 19
 10.430173
  C 0.972663 0.057120 0.123433
  C 2.471258 0.058469 0.099502
  C 3.313734 -0.020864 1.505513
  C 2.421319 -0.099390 2.897080
  H 3.093955 -0.147385 3.747714
  C 3.100401 0.124700 -1.074242
  H 2.527952 0.176465 -1.991653
  C 4.530787 0.135978 -1.274078
  C 5.103312 0.203562 -2.471895
  H 6.172283 0.211043 -2.604456
  H 0.568883 0.000374 1.129044
  H 0.588531 -0.794935 -0.436544
  H 0.588532 0.966762 -0.337134
  H 3.958709 0.855430 1.567517
  H 3.958715 -0.898569 1.468545
  H 1.793792 -0.985565 2.908037
  H 1.793786 0.779920 3.007657
  H 5.162473 0.086554 -0.398134
  H 4.533975 0.255178 -3.386658
 19
 32.215430
  C 0.959499 0.056210 0.139529
  C 2.446102 0.062571 0.026764
  C 3.383478 -0.022514 1.534716
  C 2.354933 -0.104280 2.983687
  H 3.025251 -0.152173 3.832500
  C 3.111086 0.128883 -1.148385
  H 2.536162 0.180817 -2.068750
  C 4.545341 0.139136 -1.330103
  C 5.128386 0.206237 -2.519313
  H 6.198654 0.212838 -2.636205
  H 0.626295 -0.001822 1.167939
  H 0.547072 -0.796328 -0.401998
  H 0.547075 0.964259 -0.302648
  H 4.006461 0.860342 1.603568
  H 4.006460 -0.907501 1.503813
  H 1.743486 -0.995260 2.931824
  H 1.743470 0.786886 3.032385
  H 5.158118 0.089037 -0.442189
  H 4.559657 0.257841 -3.433835
