 25
 0.000000
  C 1.014310 0.130882 0.417823
  C 2.487844 0.127427 0.418346
  C 3.248131 0.617623 1.577037
  H 2.627189 0.962871 2.393950
  C 3.099944 -0.355698 -0.731476
  C 4.474893 -0.448202 -0.985172
  C 5.107254 -0.886626 -2.125352
  C 4.606921 -1.385852 -3.415226
  C 3.117260 -1.504428 -3.707997
  C 2.893167 -2.047691 -5.117460
  H 6.189055 -0.875101 -2.108045
  H 0.591468 0.524989 1.336895
  H 0.638485 -0.882422 0.268416
  H 0.639592 0.722136 -0.422545
  H 3.904263 1.433156 1.265316
  H 3.904970 -0.173712 1.944717
  H 2.424646 -0.678279 -1.508724
  H 5.127781 -0.132934 -0.179516
  H 5.072297 -2.370058 -3.562349
  H 5.066245 -0.752299 -4.186321
  H 2.640173 -0.525696 -3.638548
  H 2.646485 -2.187432 -2.999344
  H 3.329251 -1.388508 -5.864650
  H 1.829066 -2.131269 -5.323854
  H 3.335732 -3.034740 -5.231187
 25
 -0.495863
  C 1.004735 0.174214 0.474161
  C 2.471466 0.099195 0.414988
  C 3.268077 0.584636 1.554220
  H 2.637014 0.927800 2.368515
  C 3.047315 -0.388815 -0.753830
  C 4.426259 -0.432419 -0.998076
  C 5.074739 -0.860947 -2.131982
  C 4.601170 -1.383554 -3.416924
  C 3.118442 -1.548562 -3.719889
  C 2.919635 -2.095765 -5.131417
  H 6.156857 -0.804719 -2.089313
  H 0.631644 0.345098 1.479146
  H 0.533945 -0.705773 0.036188
  H 0.698868 1.017940 -0.152460
  H 3.922797 1.402663 1.246269
  H 3.924321 -0.205310 1.925218
  H 2.372697 -0.740784 -1.515000
  H 5.069017 -0.083819 -0.200899
  H 5.105481 -2.350561 -3.561694
  H 5.057051 -0.753243 -4.194912
  H 2.612047 -0.584693 -3.648891
  H 2.667072 -2.246176 -3.013058
  H 3.344050 -1.423935 -5.874406
  H 1.860457 -2.209194 -5.348415
  H 3.390722 -3.069431 -5.242848
 25
 3.611294
  C 1.008696 0.163929 0.502184
  C 2.464962 0.114455 0.405167
  C 3.269418 0.523642 1.573041
  H 2.643511 0.913505 2.370008
  C 3.032979 -0.366240 -0.769737
  C 4.405286 -0.358365 -1.028602
  C 5.061374 -0.776153 -2.162947
  C 4.599979 -1.342560 -3.437068
  C 3.121301 -1.574242 -3.718254
  C 2.930816 -2.165188 -5.113322
  H 6.141698 -0.690877 -2.124765
  H 0.592652 0.246191 1.498076
  H 0.463503 -0.476106 -0.181650
  H 0.972304 1.181985 0.054263
  H 4.015983 1.272340 1.309120
  H 3.811166 -0.341457 1.956896
  H 2.366952 -0.761297 -1.514601
  H 5.040627 0.039640 -0.250018
  H 5.139678 -2.291206 -3.568223
  H 5.016057 -0.702592 -4.227537
  H 2.577380 -0.629365 -3.666755
  H 2.707556 -2.272375 -2.989030
  H 3.363239 -1.518736 -5.873905
  H 1.873233 -2.282971 -5.335246
  H 3.401266 -3.143181 -5.189381
 25
 18.751275
  C 1.004230 0.121174 0.534818
  C 2.436019 0.164116 0.391473
  C 3.262397 0.461126 1.587415
  H 2.654791 0.839574 2.404017
  C 3.015503 -0.291474 -0.799384
  C 4.382056 -0.265691 -1.064464
  C 5.043813 -0.709274 -2.184469
  C 4.593240 -1.334224 -3.443105
  C 3.114625 -1.578996 -3.721894
  C 2.932602 -2.222794 -5.093326
  H 6.120246 -0.590593 -2.158302
  H 0.545327 0.226751 1.501642
  H 0.412345 -0.312192 -0.254307
  H 1.309771 1.190975 0.150577
  H 4.048890 1.182359 1.373654
  H 3.741682 -0.459689 1.917722
  H 2.348177 -0.656805 -1.558797
  H 5.018009 0.139183 -0.289098
  H 5.131116 -2.288780 -3.527851
  H 5.009126 -0.725051 -4.257602
  H 2.571285 -0.633894 -3.712413
  H 2.696758 -2.248714 -2.967647
  H 3.314064 -1.576533 -5.880701
  H 1.880928 -2.407472 -5.290542
  H 3.457824 -3.172722 -5.149339
 25
 35.184816
  C 0.973734 0.027224 0.617793
  C 2.375634 0.157485 0.399092
  C 3.250630 0.589760 1.545855
  H 2.652842 0.907497 2.395176
  C 2.984692 -0.387293 -0.779917
  C 4.363881 -0.383521 -1.022335
  C 5.034873 -0.799871 -2.144003
  C 4.590898 -1.355692 -3.436436
  C 3.112263 -1.592185 -3.722596
  C 2.926149 -2.149566 -5.132029
  H 6.109182 -0.707220 -2.097520
  H 0.526968 0.309425 1.555925
  H 0.348171 -0.447183 -0.122932
  H 1.666603 1.092738 -0.005404
  H 3.912455 1.406830 1.264023
  H 3.866864 -0.250510 1.859923
  H 2.321099 -0.813533 -1.515257
  H 4.996701 0.003633 -0.232864
  H 5.130910 -2.302529 -3.571585
  H 5.000407 -0.699775 -4.216837
  H 2.562715 -0.654412 -3.649023
  H 2.706507 -2.311355 -3.011838
  H 3.347419 -1.477253 -5.875532
  H 1.868879 -2.279000 -5.355044
  H 3.413434 -3.117519 -5.233859
 25
 39.928007
  C 0.969836 -0.034559 0.627061
  C 2.357591 0.221136 0.390617
  C 3.238278 0.550920 1.581825
  H 2.635136 0.840697 2.436531
  C 2.987227 -0.314961 -0.813013
  C 4.352131 -0.310939 -1.050080
  C 5.021826 -0.763411 -2.161170
  C 4.574916 -1.360115 -3.432337
  C 3.093584 -1.575030 -3.726525
  C 2.911535 -2.187895 -5.113392
  H 6.100318 -0.678165 -2.112957
  H 0.523878 0.197897 1.575733
  H 0.342239 -0.437493 -0.148332
  H 2.003755 1.181481 -0.112907
  H 3.929083 1.360033 1.361350
  H 3.816864 -0.327536 1.858802
  H 2.314817 -0.715540 -1.552732
  H 4.982001 0.087392 -0.266549
  H 5.096078 -2.322573 -3.527166
  H 5.008395 -0.745106 -4.233320
  H 2.564291 -0.621517 -3.699919
  H 2.661413 -2.255209 -2.990551
  H 3.326278 -1.540660 -5.883055
  H 1.856309 -2.335018 -5.329500
  H 3.406193 -3.154817 -5.179190
 25
 41.956325
  C 0.973293 -0.004747 0.643822
  C 2.348996 0.206850 0.417845
  C 3.229503 0.576683 1.594117
  H 2.622222 0.792872 2.466857
  C 2.969505 -0.329874 -0.810650
  C 4.342105 -0.319011 -1.047307
  C 5.010039 -0.786668 -2.147939
  C 4.561807 -1.379667 -3.420931
  C 3.080240 -1.571676 -3.723064
  C 2.896385 -2.165660 -5.117383
  H 6.089978 -0.708961 -2.097535
  H 0.537278 0.158033 1.610801
  H 0.326932 -0.354643 -0.141261
  H 2.308424 1.066771 -0.365649
  H 3.845124 1.447118 1.386870
  H 3.884761 -0.254272 1.841298
  H 2.301328 -0.785172 -1.519882
  H 4.966347 0.092756 -0.265536
  H 5.070270 -2.348795 -3.511985
  H 5.007666 -0.770525 -4.218379
  H 2.563353 -0.611924 -3.688130
  H 2.635968 -2.256438 -2.998843
  H 3.305325 -1.505763 -5.878776
  H 1.840670 -2.314239 -5.332140
  H 3.395060 -3.128933 -5.198798
 25
 39.450994
  C 0.989872 -0.007132 0.653842
  C 2.334811 0.196238 0.443752
  C 3.230422 0.523404 1.605447
  H 2.640744 0.713820 2.496351
  C 2.943352 -0.226362 -0.842505
  C 4.335759 -0.240683 -1.076799
  C 5.000916 -0.752289 -2.148057
  C 4.553620 -1.392667 -3.400997
  C 3.071066 -1.558396 -3.715181
  C 2.888386 -2.186268 -5.094955
  H 6.081002 -0.690117 -2.092845
  H 0.562449 0.125909 1.631179
  H 0.320684 -0.295718 -0.137840
  H 2.481197 0.966284 -0.556514
  H 3.845511 1.398474 1.415380
  H 3.890169 -0.317016 1.809922
  H 2.272238 -0.668762 -1.560341
  H 4.957293 0.182878 -0.299574
  H 5.035798 -2.378343 -3.439193
  H 5.026238 -0.834073 -4.219530
  H 2.576183 -0.586386 -3.713829
  H 2.602692 -2.212118 -2.977749
  H 3.310116 -1.551082 -5.871054
  H 1.832497 -2.327769 -5.312585
  H 3.375713 -3.157415 -5.148338
 25
 30.520602
  C 0.984853 0.007104 0.656828
  C 2.322886 0.164841 0.483217
  C 3.227982 0.500283 1.621956
  H 2.655435 0.653959 2.530672
  C 2.908588 -0.163928 -0.854814
  C 4.325212 -0.218527 -1.078091
  C 4.991027 -0.736910 -2.145988
  C 4.541206 -1.355186 -3.403849
  C 3.060554 -1.542170 -3.704197
  C 2.873947 -2.198589 -5.069780
  H 6.070377 -0.684632 -2.088494
  H 0.531360 0.161288 1.618820
  H 0.325511 -0.280255 -0.143809
  H 2.569693 0.951972 -0.799877
  H 3.805036 1.402388 1.431747
  H 3.927779 -0.317473 1.789548
  H 2.239604 -0.660839 -1.543423
  H 4.944133 0.196096 -0.293496
  H 5.041867 -2.329757 -3.470974
  H 4.995640 -0.771172 -4.215045
  H 2.554250 -0.576362 -3.716545
  H 2.604753 -2.186289 -2.950835
  H 3.307643 -1.587290 -5.859167
  H 1.816457 -2.329199 -5.288288
  H 3.346665 -3.177732 -5.099684
 25
 20.386622
  C 1.012552 -0.022823 0.667552
  C 2.339628 0.131138 0.500254
  C 3.258010 0.433424 1.624220
  H 2.709143 0.517494 2.557401
  C 2.882466 -0.050020 -0.885314
  C 4.317903 -0.151277 -1.089517
  C 4.986809 -0.719720 -2.127967
  C 4.539110 -1.370483 -3.370688
  C 3.061353 -1.530711 -3.695231
  C 2.879961 -2.229890 -5.040394
  H 6.067871 -0.690340 -2.055717
  H 0.551581 0.069685 1.635861
  H 0.354020 -0.264570 -0.150147
  H 2.605366 1.016205 -1.082426
  H 3.791647 1.368562 1.460813
  H 3.999018 -0.358353 1.721190
  H 2.243665 -0.640570 -1.530179
  H 4.931664 0.281420 -0.311641
  H 5.022596 -2.356766 -3.403839
  H 5.023414 -0.824819 -4.193507
  H 2.577888 -0.554781 -3.746100
  H 2.574708 -2.137323 -2.928816
  H 3.343709 -1.660279 -5.842412
  H 1.823542 -2.337246 -5.273452
  H 3.323555 -3.222986 -5.028234
 25
 16.875176
  C 1.011452 0.055997 0.680440
  C 2.347770 0.100199 0.507582
  C 3.278654 0.385988 1.623741
  H 2.743566 0.474032 2.564357
  C 2.864190 -0.089646 -0.880820
  C 4.312481 -0.137885 -1.088436
  C 4.990451 -0.682946 -2.131358
  C 4.545695 -1.357834 -3.361928
  C 3.069856 -1.513086 -3.690214
  C 2.883569 -2.215938 -5.031972
  H 6.070657 -0.618888 -2.071898
  H 0.560580 0.196044 1.647275
  H 0.335496 -0.151822 -0.131408
  H 2.490901 0.847883 -1.335351
  H 3.816421 1.317722 1.450259
  H 4.019564 -0.408490 1.706898
  H 2.316044 -0.869904 -1.409127
  H 4.915057 0.326017 -0.320743
  H 5.028237 -2.345012 -3.380798
  H 5.035707 -0.828729 -4.192372
  H 2.587714 -0.535951 -3.737356
  H 2.576872 -2.116418 -2.923855
  H 3.345620 -1.649097 -5.837165
  H 1.826290 -2.321690 -5.261470
  H 3.325428 -3.209793 -5.019121
 25
 16.509130
  C 1.006827 0.211362 0.644609
  C 2.343623 0.098964 0.501123
  C 3.276312 0.298098 1.638015
  H 2.735972 0.393364 2.575167
  C 2.860866 -0.164933 -0.873367
  C 4.311798 -0.136814 -1.087271
  C 4.998488 -0.620298 -2.155562
  C 4.557037 -1.305053 -3.377164
  C 3.079255 -1.525534 -3.661881
  C 2.879927 -2.221899 -5.004726
  H 6.073906 -0.497083 -2.122051
  H 0.553720 0.480656 1.582344
  H 0.329259 0.022193 -0.170131
  H 2.390208 0.633692 -1.481489
  H 3.867156 1.201636 1.494784
  H 3.971254 -0.535925 1.706338
  H 2.410076 -1.074996 -1.282080
  H 4.902949 0.332618 -0.311270
  H 5.085722 -2.268127 -3.419329
  H 4.998051 -0.744095 -4.217591
  H 2.551179 -0.574070 -3.676967
  H 2.637691 -2.158107 -2.888913
  H 3.285208 -1.624285 -5.818647
  H 1.820824 -2.376859 -5.198798
  H 3.370962 -3.193750 -5.019985
 25
 15.412749
  C 1.002191 0.148109 0.656264
  C 2.341391 0.120523 0.495823
  C 3.264928 0.437156 1.612765
  H 2.719807 0.584582 2.539722
  C 2.877737 -0.246187 -0.844454
  C 4.332976 -0.219473 -1.048950
  C 5.012177 -0.685071 -2.127963
  C 4.556268 -1.327477 -3.371891
  C 3.075796 -1.505857 -3.667089
  C 2.863051 -2.135762 -5.040916
  H 6.090212 -0.580446 -2.090619
  H 0.552506 0.395309 1.601608
  H 0.324709 -0.074133 -0.150817
  H 2.400253 0.417375 -1.581994
  H 3.822207 1.349342 1.396829
  H 3.988938 -0.365899 1.749724
  H 2.472440 -1.228256 -1.128424
  H 4.927524 0.222587 -0.265423
  H 5.058622 -2.303882 -3.431348
  H 5.017990 -0.767527 -4.198514
  H 2.565104 -0.541410 -3.639871
  H 2.615432 -2.157443 -2.919611
  H 3.276322 -1.507847 -5.827617
  H 1.802128 -2.265307 -5.238884
  H 3.337564 -3.112252 -5.103191
