 22
 0.000000
  C 1.002704 0.053235 0.192260
  C 2.505027 0.054613 0.167814
  C 3.295722 -0.017816 1.451442
  C 2.501272 -0.091270 2.753145
  C 3.439174 -0.158957 3.952789
  C 3.119048 0.121738 -1.021745
  H 2.513005 0.172195 -1.915940
  C 4.541588 0.135037 -1.257410
  C 5.076850 0.203689 -2.474149
  H 6.138005 0.212741 -2.634553
  H 0.601411 -0.003489 1.197462
  H 0.619737 -0.796628 -0.371174
  H 0.619740 0.961092 -0.271986
  H 3.946655 0.859787 1.505790
  H 3.946662 -0.895960 1.406720
  H 1.864129 -0.978246 2.753086
  H 1.864116 0.790084 2.852872
  H 4.075626 -1.039397 3.893087
  H 2.870642 -0.211197 4.878511
  H 4.075620 0.722616 3.992504
  H 5.194601 0.086439 -0.396143
  H 4.471139 0.253746 -3.361231
 22
 7.120657
  C 0.881848 0.053294 0.191226
  C 2.543536 0.054659 0.167007
  C 3.324699 -0.017779 1.450798
  C 2.521367 -0.090939 2.747291
  C 3.451000 -0.159034 3.954157
  C 3.150278 0.121592 -1.019155
  H 2.540470 0.172002 -1.912522
  C 4.572965 0.135081 -1.258198
  C 5.104486 0.203757 -2.475354
  H 6.167630 0.212959 -2.638426
  H 0.483956 -0.003394 1.195793
  H 0.505712 -0.795799 -0.372832
  H 0.505714 0.960455 -0.273726
  H 3.975704 0.860184 1.508211
  H 3.975709 -0.896624 1.409081
  H 1.883920 -0.977507 2.742290
  H 1.883910 0.790561 2.842062
  H 4.087655 -1.039752 3.898962
  H 2.875922 -0.211052 4.875939
  H 4.087650 0.722307 3.998383
  H 5.227589 0.086587 -0.398755
  H 4.494604 0.253784 -3.361927
 22
 22.461469
  C 0.789824 0.052542 0.204555
  C 2.610795 0.054190 0.175338
  C 3.363688 -0.018209 1.458450
  C 2.531578 -0.090338 2.736641
  C 3.431926 -0.159737 3.966613
  C 3.185085 0.121324 -1.014398
  H 2.556641 0.171124 -1.896972
  C 4.606465 0.136255 -1.278980
  C 5.114094 0.205435 -2.505074
  H 6.176024 0.215718 -2.687355
  H 0.414111 -0.004385 1.213359
  H 0.435949 -0.797221 -0.359787
  H 0.435950 0.960399 -0.260605
  H 4.013977 0.860653 1.525846
  H 4.013980 -0.899067 1.426552
  H 1.893255 -0.975199 2.714407
  H 1.893250 0.791401 2.814092
  H 4.068815 -1.041322 3.926886
  H 2.834788 -0.210956 4.874277
  H 4.068806 0.720721 4.026306
  H 5.275812 0.088418 -0.431191
  H 4.485086 0.254812 -3.380167
 22
 39.415904
  C 0.687646 0.052065 0.213010
  C 2.667968 0.053748 0.183167
  C 3.399955 -0.019332 1.478373
  C 2.542528 -0.090560 2.740603
  C 3.415460 -0.161026 3.989438
  C 3.221120 0.122120 -1.028497
  H 2.579729 0.171295 -1.900021
  C 4.640769 0.138219 -1.313774
  C 5.130155 0.207841 -2.547720
  H 6.188069 0.218940 -2.744440
  H 0.330973 -0.005263 1.228912
  H 0.356901 -0.804924 -0.356550
  H 0.356902 0.967688 -0.256522
  H 4.049545 0.860110 1.556113
  H 4.049554 -0.901936 1.456688
  H 1.903572 -0.974351 2.702764
  H 1.903559 0.791875 2.802428
  H 4.052042 -1.043231 3.963499
  H 2.798873 -0.211502 4.883881
  H 4.052036 0.718498 4.062907
  H 5.321061 0.090844 -0.474153
  H 4.488133 0.256587 -3.411677
 22
 56.298240
  C 0.588132 0.051915 0.215656
  C 2.727751 0.053833 0.181663
  C 3.438631 -0.019145 1.475039
  C 2.559963 -0.089489 2.721603
  C 3.409084 -0.160860 3.986477
  C 3.242732 0.120996 -1.008588
  H 2.589223 0.169588 -1.869761
  C 4.657403 0.137939 -1.308840
  C 5.132358 0.207811 -2.547200
  H 6.189129 0.219529 -2.754868
  H 0.253191 -0.005671 1.236146
  H 0.281053 -0.807786 -0.355340
  H 0.281053 0.970397 -0.254998
  H 4.087002 0.860644 1.560461
  H 4.087007 -0.902953 1.460949
  H 1.920679 -0.972214 2.669675
  H 1.920672 0.793466 2.769309
  H 4.045301 -1.043819 3.972602
  H 2.775676 -0.210671 4.869129
  H 4.045302 0.718065 4.072021
  H 5.344907 0.090895 -0.475084
  H 4.479530 0.256161 -3.404119
 22
 69.686718
  C 0.521433 0.051313 0.226316
  C 2.820631 0.052040 0.213398
  C 3.480590 -0.021444 1.515699
  C 2.554461 -0.090002 2.730731
  C 3.352283 -0.163143 4.026952
  C 3.265574 0.121705 -1.021188
  H 2.583654 0.168497 -1.850422
  C 4.669208 0.141406 -1.370385
  C 5.109360 0.212640 -2.632771
  H 6.157755 0.226023 -2.869831
  H 0.248941 -0.007267 1.264389
  H 0.326229 -0.828490 -0.361738
  H 0.326230 0.991686 -0.259023
  H 4.125752 0.860992 1.622971
  H 4.125764 -0.910349 1.523019
  H 1.915905 -0.971397 2.646519
  H 1.915890 0.795282 2.746205
  H 3.986648 -1.047462 4.038601
  H 2.684263 -0.211449 4.883244
  H 3.986621 0.714243 4.137996
  H 5.372136 0.095106 -0.549790
  H 4.429740 0.259715 -3.466894
 22
 83.116755
  C 0.398996 0.051096 0.230155
  C 2.857482 0.052279 0.209176
  C 3.514691 -0.021787 1.521779
  C 2.572793 -0.089735 2.725991
  C 3.352828 -0.163511 4.033499
  C 3.295438 0.122233 -1.030533
  H 2.603290 0.169108 -1.861253
  C 4.704464 0.142566 -1.390918
  C 5.126544 0.212481 -2.629947
  H 6.174435 0.226257 -2.873988
  H 0.137402 -0.007369 1.266208
  H 0.212034 -0.826210 -0.355295
  H 0.212035 0.988697 -0.252878
  H 4.159521 0.860741 1.635135
  H 4.159528 -0.911463 1.535134
  H 1.934812 -0.969694 2.632622
  H 1.934809 0.795140 2.732206
  H 3.986291 -1.048275 4.053913
  H 2.672795 -0.211317 4.880863
  H 3.986277 0.713338 4.153306
  H 5.413824 0.096587 -0.576023
  H 4.440498 0.259245 -3.458581
 22
 93.822714
  C 0.306004 0.050367 0.243109
  C 2.923793 0.051832 0.217169
  C 3.559249 -0.023571 1.553514
  C 2.577495 -0.089928 2.729453
  C 3.310215 -0.165252 4.064395
  C 3.323892 0.122366 -1.032860
  H 2.606602 0.168496 -1.850469
  C 4.733085 0.145158 -1.436773
  C 5.123292 0.216234 -2.696447
  H 6.168053 0.231663 -2.969848
  H 0.084433 -0.008096 1.279149
  H 0.179383 -0.829069 -0.342568
  H 0.179382 0.990112 -0.239914
  H 4.201900 0.859557 1.686824
  H 4.201915 -0.916098 1.586635
  H 1.941677 -0.967132 2.610869
  H 1.941681 0.795028 2.710301
  H 3.940745 -1.051242 4.107525
  H 2.599859 -0.211677 4.887170
  H 3.940723 0.710246 4.206911
  H 5.464546 0.099957 -0.635618
  H 4.412848 0.262012 -3.507796
 22
 102.883068
  C 0.187007 0.049662 0.255592
  C 2.964165 0.051005 0.231776
  C 3.580603 -0.023245 1.547672
  C 2.590848 -0.088893 2.711017
  C 3.311317 -0.164423 4.049548
  C 3.352945 0.121442 -1.016514
  H 2.638410 0.166938 -1.822849
  C 4.753429 0.144584 -1.426634
  C 5.139958 0.216195 -2.695766
  H 6.178846 0.231827 -2.972761
  H -0.024757 -0.009691 1.307391
  H 0.081736 -0.839440 -0.336082
  H 0.081737 0.999684 -0.232300
  H 4.218711 0.855763 1.684577
  H 4.218713 -0.912068 1.584824
  H 1.954491 -0.967428 2.585911
  H 1.954482 0.798140 2.685535
  H 3.941049 -1.050845 4.097876
  H 2.594312 -0.210464 4.865474
  H 3.941060 0.710958 4.197291
  H 5.481850 0.099757 -0.632148
  H 4.427586 0.261683 -3.501938
