 15
 0.000000
  C 0.899059 0.047487 0.227006
  C 2.397926 0.056279 0.117816
  C 3.255540 -0.016621 1.365589
  C 2.534489 -0.082637 2.706705
  H 3.270532 -0.129678 3.506379
  C 2.989854 0.125281 -1.065981
  H 2.441021 0.176012 -1.990973
  H 4.063189 0.133732 -1.161631
  H 0.563108 -0.031894 1.254968
  H 0.484229 -0.795739 -0.323694
  H 0.475749 0.962076 -0.184869
  H 3.913419 0.857569 1.373135
  H 3.900878 -0.895997 1.279783
  H 1.905543 -0.967887 2.775027
  H 1.917108 0.798825 2.867450
 15
 5.302300
  C 0.897745 -0.016131 0.241124
  C 2.361661 0.048748 0.138451
  C 3.248115 -0.022430 1.367494
  C 2.535099 -0.067881 2.708622
  H 3.271338 -0.113530 3.506862
  C 2.955858 0.145332 -1.057427
  H 2.380474 0.186392 -1.980217
  H 4.038233 0.201848 -1.156716
  H 0.503308 -0.061915 1.250963
  H 0.458816 -0.806779 -0.366900
  H 0.734077 0.936892 -0.203673
  H 3.916006 0.840550 1.356994
  H 3.880222 -0.908029 1.279654
  H 1.901879 -0.947520 2.788231
  H 1.929285 0.821571 2.861849
 15
 17.626055
  C 0.890643 -0.069782 0.249703
  C 2.335885 0.041425 0.134110
  C 3.237918 -0.027539 1.361020
  C 2.533915 -0.050374 2.709752
  H 3.278624 -0.093429 3.507628
  C 2.936014 0.168317 -1.063593
  H 2.374731 0.194994 -1.975228
  H 4.001818 0.257992 -1.152249
  H 0.473499 -0.105167 1.252237
  H 0.433739 -0.804397 -0.396088
  H 0.938739 0.911391 -0.184875
  H 3.915786 0.820537 1.337346
  H 3.851605 -0.922216 1.276169
  H 1.889422 -0.929076 2.803756
  H 1.933413 0.851839 2.856476
 15
 31.385228
  C 0.876084 -0.113757 0.261945
  C 2.320586 0.038830 0.130562
  C 3.225268 -0.025868 1.350058
  C 2.528783 -0.026616 2.706458
  H 3.275025 -0.063967 3.495437
  C 2.929175 0.174642 -1.068945
  H 2.375524 0.183100 -1.986110
  H 3.994737 0.291435 -1.148562
  H 0.466590 -0.204509 1.248190
  H 0.391461 -0.749736 -0.460851
  H 1.096655 0.889841 -0.074906
  H 3.921526 0.819650 1.314837
  H 3.827839 -0.937622 1.267386
  H 1.884301 -0.893516 2.816719
  H 1.938261 0.875078 2.844962
 15
 42.837404
  C 0.870680 -0.153538 0.274285
  C 2.316112 0.030754 0.122571
  C 3.215464 -0.025104 1.343709
  C 2.522208 -0.001882 2.696907
  H 3.271418 -0.025105 3.484687
  C 2.929475 0.175819 -1.082360
  H 2.378043 0.175079 -2.003788
  H 3.992783 0.313311 -1.158333
  H 0.476976 -0.322876 1.252099
  H 0.348865 -0.665088 -0.519294
  H 1.231658 0.870145 0.054089
  H 3.918668 0.810752 1.298368
  H 3.808345 -0.943761 1.269201
  H 1.878368 -0.867760 2.826056
  H 1.931204 0.902432 2.820895
 15
 50.992871
  C 0.868892 -0.188630 0.277228
  C 2.316248 0.023303 0.114097
  C 3.213951 -0.027046 1.339094
  C 2.516706 0.020230 2.693306
  H 3.264813 0.016774 3.482788
  C 2.929009 0.177725 -1.095919
  H 2.376220 0.169289 -2.019309
  H 3.988335 0.330297 -1.171470
  H 0.482451 -0.440041 1.244685
  H 0.315606 -0.562060 -0.563640
  H 1.344119 0.841867 0.165829
  H 3.924673 0.803136 1.283653
  H 3.798407 -0.950997 1.275938
  H 1.879014 -0.843960 2.840157
  H 1.918570 0.925171 2.798624
 15
 57.500605
  C 0.867787 -0.220881 0.277717
  C 2.315658 0.022288 0.112451
  C 3.215111 -0.030348 1.336920
  C 2.515919 0.039981 2.689086
  H 3.263306 0.052644 3.481827
  C 2.929937 0.183801 -1.102996
  H 2.374234 0.169091 -2.023432
  H 3.986264 0.353688 -1.176348
  H 0.481709 -0.523920 1.228353
  H 0.294037 -0.488199 -0.588812
  H 1.427802 0.815148 0.237467
  H 3.936022 0.790721 1.272124
  H 3.786848 -0.960159 1.283833
  H 1.876500 -0.822829 2.851187
  H 1.918444 0.942445 2.776974
 15
 63.055028
  C 0.866675 -0.255151 0.271936
  C 2.313617 0.026039 0.115581
  C 3.218062 -0.035387 1.337713
  C 2.520831 0.057212 2.689300
  H 3.266713 0.078074 3.479218
  C 2.932954 0.193624 -1.107516
  H 2.375644 0.175835 -2.025279
  H 3.985289 0.380652 -1.176258
  H 0.470677 -0.577292 1.211755
  H 0.282690 -0.444628 -0.605986
  H 1.485981 0.797154 0.274364
  H 3.948193 0.773743 1.263886
  H 3.776813 -0.974493 1.290596
  H 1.878117 -0.803297 2.865598
  H 1.924567 0.965080 2.765800
 15
 67.758805
  C 0.869549 -0.292508 0.264225
  C 2.309641 0.033892 0.119578
  C 3.219887 -0.040711 1.338919
  C 2.526960 0.071504 2.691272
  H 3.275115 0.091793 3.481782
  C 2.935595 0.204447 -1.109436
  H 2.377648 0.189771 -2.025495
  H 3.985028 0.407196 -1.172237
  H 0.462707 -0.608845 1.200792
  H 0.278455 -0.431880 -0.618696
  H 1.529813 0.796651 0.287020
  H 3.963619 0.755395 1.258070
  H 3.759936 -0.987015 1.295247
  H 1.875072 -0.779960 2.875448
  H 1.938387 0.986937 2.759835
 15
 71.858790
  C 0.873612 -0.318550 0.263321
  C 2.308994 0.041293 0.124297
  C 3.222382 -0.042699 1.339386
  C 2.528417 0.081251 2.690329
  H 3.273557 0.100487 3.480606
  C 2.938002 0.215049 -1.111219
  H 2.378076 0.206200 -2.023248
  H 3.990830 0.422381 -1.173864
  H 0.460869 -0.619880 1.198778
  H 0.277993 -0.432423 -0.619613
  H 1.571619 0.802665 0.290488
  H 3.974588 0.747560 1.254728
  H 3.754037 -0.995939 1.297460
  H 1.871046 -0.762141 2.877473
  H 1.947575 0.998605 2.753353
 15
 74.907612
  C 0.879376 -0.348478 0.258001
  C 2.307193 0.050416 0.128463
  C 3.224226 -0.044293 1.341227
  C 2.533454 0.090708 2.691723
  H 3.280237 0.106437 3.482016
  C 2.942759 0.225978 -1.114765
  H 2.382609 0.218201 -2.026151
  H 3.991249 0.439695 -1.173437
  H 0.457229 -0.629381 1.197233
  H 0.279860 -0.437941 -0.623710
  H 1.608564 0.823369 0.289795
  H 3.982891 0.736998 1.252860
  H 3.743855 -1.001885 1.299857
  H 1.867197 -0.747701 2.882577
  H 1.959642 1.015214 2.751395
 15
 76.484695
  C 0.892235 -0.392434 0.248788
  C 2.300365 0.062675 0.133390
  C 3.223702 -0.047427 1.342603
  C 2.540292 0.102129 2.695448
  H 3.290846 0.109583 3.483913
  C 2.946783 0.237235 -1.116985
  H 2.388039 0.226364 -2.029020
  H 3.989284 0.469434 -1.167320
  H 0.453599 -0.635427 1.193496
  H 0.284559 -0.453053 -0.630304
  H 1.642716 0.863511 0.284291
  H 3.992342 0.720599 1.248920
  H 3.726655 -1.013148 1.300058
  H 1.861558 -0.726454 2.891097
  H 1.979548 1.036557 2.753396
 15
 77.221179
  C 0.909049 -0.438621 0.242774
  C 2.292667 0.076975 0.138296
  C 3.220831 -0.049561 1.343757
  C 2.544849 0.115346 2.697970
  H 3.297441 0.113307 3.484247
  C 2.948106 0.252668 -1.118323
  H 2.387893 0.247122 -2.028985
  H 3.989629 0.490373 -1.163738
  H 0.458695 -0.642108 1.191611
  H 0.295369 -0.479399 -0.634028
  H 1.683699 0.916335 0.275417
  H 4.001728 0.705748 1.245028
  H 3.706543 -1.023946 1.299828
  H 1.853079 -0.700544 2.898646
  H 1.999656 1.058729 2.753745
 15
 77.229142
  C 0.926624 -0.483504 0.238512
  C 2.284880 0.091262 0.143621
  C 3.220025 -0.050384 1.344596
  C 2.551101 0.130423 2.700828
  H 3.305859 0.118161 3.485062
  C 2.949958 0.269175 -1.119921
  H 2.392224 0.260948 -2.032528
  H 3.986345 0.529600 -1.159006
  H 0.459812 -0.642610 1.189422
  H 0.305810 -0.510542 -0.635396
  H 1.726577 0.969278 0.262584
  H 4.012575 0.691263 1.240638
  H 3.686939 -1.033508 1.299897
  H 1.845583 -0.672367 2.905726
  H 2.022179 1.083233 2.754269
