 20
 0.000000
  C 0.988432 0.158165 0.444855
  C 2.448958 0.122078 0.354826
  H 3.033139 0.461151 1.198340
  C 3.053427 -0.339430 -0.793774
  C 4.432711 -0.418397 -0.991022
  C 5.128895 -0.869433 -2.115978
  C 4.637001 -1.391353 -3.417383
  C 3.150926 -1.509596 -3.712244
  H 3.031179 -1.911798 -4.715200
  O 6.442293 -0.858502 -2.089420
  H 0.639249 0.541298 1.398298
  H 0.576697 -0.841325 0.291236
  H 0.576491 0.773407 -0.357608
  H 2.395988 -0.657735 -1.585671
  H 5.062873 -0.089707 -0.172660
  H 5.105772 -2.374671 -3.539938
  H 5.105945 -0.765389 -4.185512
  H 2.661409 -0.540398 -3.683899
  H 2.661466 -2.190707 -3.022158
  H 6.838654 -0.527189 -1.261068
 20
 -0.172650
  C 0.932351 0.202426 0.384119
  C 2.395170 0.158776 0.308563
  H 2.974782 0.462935 1.168882
  C 3.014490 -0.283019 -0.840814
  C 4.398030 -0.310480 -1.015592
  C 5.137847 -0.762907 -2.111030
  C 4.694185 -1.421376 -3.367287
  C 3.221140 -1.668964 -3.647021
  H 3.135327 -2.182883 -4.601206
  O 6.445389 -0.639244 -2.086247
  H 0.578609 0.676828 1.295361
  H 0.527961 -0.813426 0.343572
  H 0.516787 0.717463 -0.483613
  H 2.374120 -0.606340 -1.644254
  H 4.986312 0.088438 -0.200880
  H 5.231208 -2.376766 -3.404667
  H 5.124745 -0.833153 -4.185891
  H 2.668480 -0.736993 -3.725620
  H 2.772811 -2.303997 -2.888362
  H 6.809202 -0.218832 -1.283788
 20
 -0.267968
  C 0.912326 0.195255 0.377665
  C 2.370125 0.104348 0.293401
  H 2.955665 0.327768 1.174095
  C 2.988475 -0.292307 -0.871041
  C 4.375842 -0.311279 -1.023781
  C 5.140758 -0.740428 -2.110517
  C 4.728384 -1.444732 -3.352334
  C 3.265116 -1.742834 -3.632200
  H 3.202036 -2.305198 -4.560420
  O 6.442004 -0.564403 -2.080920
  H 0.584079 0.722576 1.268144
  H 0.484650 -0.811240 0.407812
  H 0.496415 0.663024 -0.514657
  H 2.354301 -0.568071 -1.696619
  H 4.939631 0.094410 -0.192721
  H 5.291936 -2.385559 -3.355077
  H 5.150917 -0.871627 -4.185359
  H 2.690582 -0.830581 -3.764915
  H 2.824873 -2.350988 -2.847502
  H 6.785001 -0.115887 -1.284528
 20
 -0.130853
  C 0.845442 0.217688 0.305094
  C 2.297468 0.047505 0.266590
  H 2.850114 0.145167 1.190738
  C 2.951491 -0.283151 -0.898208
  C 4.343819 -0.295707 -0.998999
  C 5.151247 -0.688805 -2.067213
  C 4.793299 -1.437232 -3.299800
  C 3.345224 -1.783781 -3.602016
  H 3.319305 -2.396881 -4.499358
  O 6.441396 -0.452398 -2.014243
  H 0.529819 0.806740 1.161447
  H 0.368510 -0.763406 0.399250
  H 0.468664 0.649414 -0.620408
  H 2.346654 -0.488920 -1.765809
  H 4.866458 0.103262 -0.138650
  H 5.380457 -2.362753 -3.256486
  H 5.223115 -0.880532 -4.139796
  H 2.755533 -0.893479 -3.800579
  H 2.895867 -2.357027 -2.796549
  H 6.746464 0.023386 -1.218768
 20
 0.723256
  C 0.792752 0.253933 0.222252
  C 2.215748 -0.077502 0.213540
  H 2.702783 -0.192063 1.172511
  C 2.918874 -0.318228 -0.943962
  C 4.312680 -0.320820 -0.984670
  C 5.162366 -0.634694 -2.046994
  C 4.873025 -1.433711 -3.264665
  C 3.448181 -1.856911 -3.578440
  H 3.467572 -2.523134 -4.436472
  O 6.426814 -0.288920 -1.987447
  H 0.555389 0.936563 1.035882
  H 0.210999 -0.652589 0.416433
  H 0.459681 0.653511 -0.731033
  H 2.355322 -0.425912 -1.855489
  H 4.793923 0.051729 -0.085610
  H 5.498218 -2.329789 -3.171872
  H 5.297612 -0.889229 -4.114277
  H 2.829735 -1.004814 -3.844340
  H 3.000307 -2.396115 -2.748980
  H 6.684234 0.213728 -1.194140
 20
 6.562778
  C 1.076369 0.437700 0.514556
  C 2.308044 -0.327388 0.304855
  H 2.631998 -0.973342 1.111776
  C 2.951453 -0.401152 -0.920203
  C 4.337186 -0.460827 -1.043273
  C 5.109598 -0.665845 -2.186937
  C 4.715199 -1.361449 -3.438872
  C 3.267257 -1.778023 -3.636179
  H 3.194155 -2.355853 -4.553133
  O 6.391270 -0.371952 -2.172402
  H 1.021648 0.794606 1.540763
  H 0.204674 -0.212195 0.383483
  H 0.982580 1.261543 -0.188531
  H 2.341255 -0.269728 -1.804696
  H 4.876748 -0.294455 -0.118283
  H 5.353543 -2.252146 -3.473928
  H 5.046376 -0.745809 -4.281039
  H 2.616496 -0.915435 -3.745545
  H 2.917312 -2.400255 -2.817958
  H 6.705438 0.064264 -1.362131
 20
 17.576677
  C 1.231327 0.525523 0.649367
  C 2.207860 -0.489906 0.256514
  H 2.264451 -1.381952 0.869910
  C 2.851155 -0.483846 -0.991503
  C 4.227252 -0.483044 -1.075572
  C 5.057159 -0.604182 -2.196468
  C 4.767814 -1.373755 -3.437720
  C 3.344093 -1.840283 -3.683771
  H 3.334035 -2.494199 -4.551764
  O 6.299153 -0.169808 -2.148427
  H 1.210372 0.630616 1.733553
  H 0.221504 0.217134 0.358053
  H 1.426066 1.479909 0.170019
  H 2.236217 -0.329353 -1.873551
  H 4.704123 -0.381784 -0.111731
  H 5.435500 -2.239478 -3.393831
  H 5.119070 -0.785797 -4.290552
  H 2.684625 -1.002750 -3.899542
  H 2.955993 -2.397961 -2.834721
  H 6.508593 0.392209 -1.385092
 20
 31.438484
  C 1.429473 0.591543 0.802656
  C 2.073767 -0.542317 0.128231
  H 1.875894 -1.526511 0.530959
  C 2.667541 -0.439870 -1.156273
  C 4.034844 -0.498817 -1.152934
  C 4.984896 -0.565606 -2.189207
  C 4.848753 -1.378324 -3.426512
  C 3.467743 -1.952639 -3.735613
  H 3.529214 -2.564944 -4.632795
  O 6.159183 -0.014046 -2.049246
  H 1.563887 0.517029 1.874480
  H 0.346988 0.579183 0.629206
  H 1.802456 1.540082 0.437253
  H 2.064187 -0.226741 -2.029923
  H 4.365340 -0.549099 -0.118006
  H 5.598324 -2.175651 -3.354958
  H 5.172562 -0.751080 -4.263349
  H 2.743956 -1.162635 -3.919596
  H 3.109735 -2.581685 -2.924015
  H 6.281147 0.507900 -1.226907
 20
 46.704241
  C 1.687090 0.515671 0.907120
  C 2.038617 -0.562476 -0.009865
  H 1.673321 -1.553228 0.236064
  C 2.452603 -0.329822 -1.390830
  C 3.793630 -0.331556 -1.310922
  C 4.889434 -0.473233 -2.178987
  C 4.894376 -1.402081 -3.341503
  C 3.553116 -1.994144 -3.736689
  H 3.696670 -2.679719 -4.566042
  O 6.052642 0.056661 -1.903976
  H 1.810820 0.220162 1.946124
  H 0.627797 0.744381 0.762709
  H 2.244554 1.426852 0.704989
  H 1.812766 -0.064553 -2.211328
  H 3.938407 -0.576488 -0.214983
  H 5.608960 -2.198800 -3.113513
  H 5.325065 -0.854246 -4.185345
  H 2.863685 -1.223051 -4.053499
  H 3.110377 -2.549223 -2.917796
  H 6.067117 0.656851 -1.131268
 20
 54.891548
  C 1.837684 0.536033 0.932904
  C 2.131423 -0.560008 -0.016366
  H 1.800928 -1.557080 0.255657
  C 2.300341 -0.285605 -1.466901
  C 3.627382 -0.366985 -1.431648
  C 4.807181 -0.490583 -2.146271
  C 4.919440 -1.434972 -3.298357
  C 3.607704 -1.996534 -3.823089
  H 3.815123 -2.699738 -4.624286
  O 5.955390 0.028832 -1.755779
  H 2.088401 0.265294 1.954751
  H 0.760969 0.723898 0.892117
  H 2.332916 1.465115 0.661623
  H 1.597264 0.048824 -2.201872
  H 3.597020 -0.625181 -0.183983
  H 5.589273 -2.247623 -2.997546
  H 5.443377 -0.895279 -4.092687
  H 2.977316 -1.207381 -4.220228
  H 3.062709 -2.524532 -3.045674
  H 5.894210 0.673121 -1.028052
 20
 40.763373
  C 1.829556 0.552230 0.989085
  C 2.222064 -0.552761 0.036643
  H 1.824155 -1.543634 0.227766
  C 2.324411 -0.165866 -1.429869
  C 3.598654 -0.319916 -1.606784
  C 4.796692 -0.474450 -2.235631
  C 4.932492 -1.474583 -3.337522
  C 3.630632 -2.052841 -3.876382
  H 3.856644 -2.792734 -4.642270
  O 5.933797 0.044047 -1.831309
  H 1.993163 0.251371 2.011543
  H 0.766873 0.770747 0.866888
  H 2.364840 1.472543 0.784346
  H 1.552923 0.219274 -2.067376
  H 3.375052 -0.653412 0.100580
  H 5.586942 -2.276905 -2.976430
  H 5.486485 -0.978969 -4.136772
  H 3.016406 -1.277073 -4.328116
  H 3.056965 -2.542287 -3.091603
  H 5.868359 0.727717 -1.137952
 20
 24.199757
  C 1.810131 0.621971 1.018362
  C 2.232586 -0.581173 0.191271
  H 1.589832 -1.450733 0.311083
  C 2.426179 -0.221744 -1.271655
  C 3.627617 -0.346535 -1.700560
  C 4.824531 -0.492548 -2.325054
  C 4.974349 -1.498966 -3.413386
  C 3.680858 -2.103226 -3.937961
  H 3.912533 -2.854959 -4.686253
  O 5.926947 0.117771 -1.977960
  H 1.810931 0.357192 2.072755
  H 0.808458 0.949192 0.746265
  H 2.484793 1.457306 0.872397
  H 1.602623 0.210832 -1.821588
  H 3.238748 -0.877852 0.501685
  H 5.628663 -2.284869 -3.020959
  H 5.536205 -1.023588 -4.226487
  H 3.055154 -1.349896 -4.405401
  H 3.116595 -2.578221 -3.138930
  H 5.835865 0.808438 -1.298150
 20
 18.816014
  C 1.641264 0.617307 1.039425
  C 2.317676 -0.494138 0.256622
  H 1.655680 -1.356146 0.174750
  C 2.649835 -0.065397 -1.157919
  C 3.766634 -0.280406 -1.740090
  C 4.916518 -0.530039 -2.417742
  C 4.962312 -1.565644 -3.483713
  C 3.617724 -2.180095 -3.854067
  H 3.768269 -2.967998 -4.587641
  O 6.041527 0.093135 -2.180803
  H 1.401959 0.261352 2.040572
  H 0.718274 0.934717 0.561838
  H 2.296620 1.479214 1.140093
  H 1.851697 0.486478 -1.646652
  H 3.242334 -0.803915 0.753046
  H 5.653915 -2.346111 -3.138510
  H 5.446088 -1.124477 -4.362818
  H 2.954513 -1.436424 -4.291455
  H 3.127594 -2.613417 -2.983649
  H 6.014719 0.771902 -1.480731
 20
 19.124926
  C 1.390470 0.559657 0.928329
  C 2.474964 -0.341558 0.365456
  H 2.105537 -1.368683 0.296611
  C 2.892811 0.048392 -1.032057
  C 3.953217 -0.289332 -1.666390
  C 5.027039 -0.634342 -2.426182
  C 4.895484 -1.630209 -3.520650
  C 3.480774 -2.118595 -3.791928
  H 3.504288 -2.889945 -4.555707
  O 6.223574 -0.131382 -2.256795
  H 1.104866 0.209770 1.916106
  H 0.504179 0.555198 0.298698
  H 1.743666 1.582858 1.031479
  H 2.172684 0.702158 -1.523901
  H 3.345626 -0.337722 1.018257
  H 5.544043 -2.475463 -3.257322
  H 5.340980 -1.201261 -4.424112
  H 2.849601 -1.310008 -4.150974
  H 3.030177 -2.539116 -2.897343
  H 6.314782 0.514809 -1.530179
 20
 19.577385
  C 1.272056 0.452746 0.818825
  C 2.584785 -0.211676 0.443016
  H 2.498182 -1.298212 0.539472
  C 2.995337 0.068409 -0.976901
  C 4.066736 -0.287129 -1.592480
  C 5.081883 -0.708766 -2.389066
  C 4.821541 -1.648877 -3.513698
  C 3.361168 -1.992648 -3.758959
  H 3.293773 -2.742243 -4.541872
  O 6.332147 -0.345126 -2.237283
  H 1.008474 0.182808 1.839014
  H 0.464933 0.131062 0.164963
  H 1.350500 1.536571 0.774549
  H 2.283651 0.699454 -1.511833
  H 3.380191 0.111852 1.115721
  H 5.393890 -2.559397 -3.298393
  H 5.279580 -1.227710 -4.413711
  H 2.802072 -1.119016 -4.082148
  H 2.893514 -2.392978 -2.863738
  H 6.510452 0.258255 -1.491249
