 20
 0.000000
  H 1.426147 0.156193 0.442435
  C 2.505864 0.139812 0.400381
  C 3.241745 0.613188 1.575468
  H 2.574729 0.932013 2.368751
  C 3.072554 -0.329090 -0.766007
  C 4.448881 -0.417406 -0.987034
  C 5.128239 -0.870853 -2.118467
  C 4.616626 -1.389568 -3.412958
  C 3.125990 -1.498878 -3.686882
  H 2.989703 -1.899889 -4.687659
  O 6.441742 -0.866131 -2.107177
  H 3.897531 1.443816 1.307097
  H 3.898695 -0.170980 1.957037
  H 2.401252 -0.642755 -1.546027
  H 5.087401 -0.090970 -0.174432
  H 5.078241 -2.375537 -3.542444
  H 5.078858 -0.766337 -4.187586
  H 2.641088 -0.527390 -3.651638
  H 2.640545 -2.176916 -2.990631
  H 6.852230 -0.536982 -1.283855
 20
 0.222913
  H 1.432146 0.080859 0.491989
  C 2.511700 0.094433 0.411707
  C 3.253573 0.679702 1.531443
  H 2.586919 1.041892 2.299840
  C 3.060971 -0.444836 -0.735275
  C 4.433539 -0.465290 -0.973976
  C 5.129843 -0.910357 -2.100857
  C 4.624423 -1.364926 -3.421687
  C 3.129900 -1.449227 -3.699787
  H 2.990504 -1.771696 -4.731208
  O 6.441187 -0.923525 -2.070205
  H 3.884443 1.507246 1.194385
  H 3.933077 -0.057521 1.972236
  H 2.368184 -0.858853 -1.451383
  H 5.056536 -0.103856 -0.160844
  H 5.085481 -2.341568 -3.606101
  H 5.088769 -0.696419 -4.156140
  H 2.646809 -0.479294 -3.589042
  H 2.641325 -2.185220 -3.057253
  H 6.842896 -0.623401 -1.232935
 20
 0.808672
  H 1.443368 -0.047323 0.540297
  C 2.515506 0.025857 0.428457
  C 3.245497 0.759744 1.467556
  H 2.573814 1.152296 2.221721
  C 3.067297 -0.578357 -0.681836
  C 4.434887 -0.532645 -0.955890
  C 5.135035 -0.960304 -2.082117
  C 4.625370 -1.339110 -3.424800
  C 3.131399 -1.369395 -3.699936
  H 2.978292 -1.615321 -4.750411
  O 6.446722 -0.983396 -2.045261
  H 3.810984 1.585398 1.040642
  H 3.974140 0.111656 1.952461
  H 2.383219 -1.095256 -1.331831
  H 5.046184 -0.158854 -0.140770
  H 5.063237 -2.312376 -3.667437
  H 5.104952 -0.640134 -4.121204
  H 2.674567 -0.406092 -3.515299
  H 2.631304 -2.134420 -3.110520
  H 6.846423 -0.727396 -1.192362
 20
 1.012302
  H 1.463509 -0.232135 0.609560
  C 2.516881 -0.060366 0.443742
  C 3.200452 0.852980 1.365978
  H 2.515861 1.261230 2.103383
  C 3.098638 -0.709073 -0.624153
  C 4.463801 -0.605465 -0.921592
  C 5.154193 -1.021881 -2.059865
  C 4.620970 -1.292809 -3.420356
  C 3.123258 -1.268283 -3.665494
  H 2.945690 -1.401570 -4.728158
  O 6.463180 -1.090941 -2.031324
  H 3.672598 1.676598 0.827431
  H 4.007045 0.332171 1.886228
  H 2.461255 -1.344255 -1.216466
  H 5.087832 -0.231014 -0.115423
  H 5.025456 -2.257699 -3.735323
  H 5.110124 -0.559190 -4.074344
  H 2.684431 -0.320437 -3.368169
  H 2.618856 -2.081883 -3.150980
  H 6.875548 -0.901636 -1.167461
 20
 2.169274
  H 1.492055 -0.377627 0.664379
  C 2.526101 -0.149378 0.450900
  C 3.158673 0.910720 1.243372
  H 2.464100 1.342253 1.958400
  C 3.133920 -0.852763 -0.561579
  C 4.492519 -0.703375 -0.880857
  C 5.175511 -1.054673 -2.044195
  C 4.615423 -1.251019 -3.405665
  C 3.113954 -1.148140 -3.615871
  H 2.903109 -1.258619 -4.675459
  O 6.484537 -1.120725 -2.037375
  H 3.539080 1.706812 0.602284
  H 4.024965 0.516239 1.781530
  H 2.531925 -1.581700 -1.079929
  H 5.116836 -0.366293 -0.058200
  H 4.966058 -2.223568 -3.759328
  H 5.125801 -0.519960 -4.039350
  H 2.731250 -0.184813 -3.292002
  H 2.578123 -1.938255 -3.096617
  H 6.908685 -0.990037 -1.168625
 20
 3.009578
  H 1.488159 -0.381901 0.651092
  C 2.525487 -0.161006 0.441248
  C 3.143013 0.948617 1.174195
  H 2.445178 1.408459 1.865433
  C 3.153719 -0.905281 -0.524168
  C 4.511255 -0.751286 -0.849873
  C 5.178479 -1.084548 -2.025443
  C 4.603022 -1.208279 -3.388829
  C 3.096434 -1.127666 -3.575807
  H 2.875677 -1.167032 -4.635957
  O 6.489761 -1.168482 -2.036582
  H 3.521323 1.713592 0.491126
  H 4.015030 0.591405 1.731621
  H 2.566284 -1.652533 -1.032579
  H 5.143716 -0.475404 -0.012378
  H 4.977306 -2.147243 -3.814392
  H 5.088775 -0.422036 -3.980728
  H 2.692373 -0.200372 -3.174135
  H 2.586126 -1.964963 -3.111607
  H 6.926079 -1.075391 -1.167511
 20
 4.915182
  H 1.507965 -0.474019 0.655868
  C 2.531918 -0.223202 0.411525
  C 3.097440 0.992819 1.016200
  H 2.368300 1.509235 1.629050
  C 3.201800 -1.027781 -0.468912
  C 4.564689 -0.852184 -0.805604
  C 5.210942 -1.101144 -2.010107
  C 4.583318 -1.123402 -3.357984
  C 3.069424 -1.043426 -3.460567
  H 2.793440 -0.989787 -4.510122
  O 6.516576 -1.204077 -2.062456
  H 3.466618 1.680417 0.258651
  H 3.965030 0.734087 1.629402
  H 2.654943 -1.838491 -0.924503
  H 5.206828 -0.676534 0.049875
  H 4.942244 -2.020253 -3.870448
  H 5.033730 -0.288730 -3.906882
  H 2.680817 -0.154917 -2.964952
  H 2.591863 -1.920763 -3.043628
  H 6.973298 -1.202129 -1.198864
 20
 7.923060
  H 1.536064 -0.599909 0.650743
  C 2.547698 -0.318456 0.407314
  C 3.023499 0.993206 0.877137
  H 2.227048 1.565047 1.340710
  C 3.269484 -1.143434 -0.402244
  C 4.613982 -0.889662 -0.787086
  C 5.233728 -1.119570 -2.007817
  C 4.560028 -1.096057 -3.335170
  C 3.056963 -0.875138 -3.359714
  H 2.723681 -0.839856 -4.394190
  O 6.536364 -1.243148 -2.099980
  H 3.455244 1.581541 0.067715
  H 3.828377 0.848304 1.601451
  H 2.781292 -2.039379 -0.765000
  H 5.267809 -0.764872 0.070661
  H 4.805212 -2.039947 -3.835942
  H 5.060495 -0.315859 -3.913782
  H 2.786749 0.061931 -2.887736
  H 2.524790 -1.687019 -2.871893
  H 7.019582 -1.228906 -1.253684
 20
 11.444483
  H 1.563802 -0.700074 0.689828
  C 2.551444 -0.357232 0.421545
  C 2.935734 0.991412 0.887265
  H 2.092553 1.518621 1.327541
  C 3.330392 -1.169666 -0.336634
  C 4.621544 -0.819907 -0.833358
  C 5.235644 -1.132805 -2.032844
  C 4.549717 -1.145800 -3.354786
  C 3.085079 -0.736620 -3.376815
  H 2.722901 -0.771274 -4.410283
  O 6.525391 -1.328842 -2.120559
  H 3.351278 1.599443 0.083367
  H 3.725830 0.906104 1.635368
  H 2.932469 -2.146629 -0.605552
  H 5.265619 -0.627415 0.016256
  H 4.666476 -2.164642 -3.766268
  H 5.136194 -0.490126 -4.009050
  H 2.953618 0.272296 -3.011665
  H 2.470947 -1.408211 -2.792396
  H 7.008180 -1.321406 -1.272815
 20
 17.582619
  H 1.529682 -0.586843 0.697509
  C 2.525506 -0.285826 0.413671
  C 3.007577 1.026740 0.866212
  H 2.252334 1.548191 1.441733
  C 3.268399 -1.176069 -0.303569
  C 4.535393 -0.845048 -0.870632
  C 5.224392 -1.105050 -2.031665
  C 4.587986 -1.048109 -3.380293
  C 3.080786 -0.825386 -3.397532
  H 2.737151 -0.789078 -4.427825
  O 6.513754 -1.340515 -2.058486
  H 3.306838 1.660714 0.026539
  H 3.902001 0.904866 1.479272
  H 2.812468 -2.136928 -0.515726
  H 5.048773 -0.652286 0.058271
  H 4.829932 -1.988646 -3.879972
  H 5.098026 -0.272198 -3.950648
  H 2.819490 0.120799 -2.929508
  H 2.552640 -1.629528 -2.892941
  H 6.939405 -1.417739 -1.184484
 20
 27.367735
  H 1.531885 -0.509176 0.761186
  C 2.532125 -0.250067 0.444769
  C 3.047158 1.074783 0.823874
  H 2.333978 1.622062 1.427553
  C 3.233196 -1.196211 -0.245343
  C 4.468530 -0.896429 -0.903563
  C 5.202358 -1.096599 -2.026009
  C 4.602965 -0.956693 -3.387874
  C 3.084026 -0.867262 -3.416551
  H 2.749047 -0.763172 -4.441444
  O 6.497878 -1.303123 -2.033134
  H 3.284406 1.670558 -0.053326
  H 3.989470 0.981403 1.375539
  H 2.729933 -2.142386 -0.408424
  H 4.903588 -0.799412 0.094496
  H 4.926821 -1.836503 -3.955106
  H 5.060678 -0.088797 -3.876425
  H 2.729175 0.007839 -2.872284
  H 2.632469 -1.752360 -2.984730
  H 6.892257 -1.481889 -1.161540
 20
 43.758060
  H 1.589356 -0.555545 0.912233
  C 2.547430 -0.273177 0.535692
  C 3.021799 1.087817 0.775442
  H 2.272932 1.685955 1.281916
  C 3.259778 -1.230379 -0.139251
  C 4.419368 -0.959189 -0.947740
  C 5.189978 -1.095773 -2.033100
  C 4.602994 -0.956744 -3.417922
  C 3.095029 -0.753945 -3.456214
  H 2.776296 -0.653657 -4.492693
  O 6.495278 -1.276083 -2.045818
  H 3.284566 1.577197 -0.166029
  H 3.932963 1.090269 1.378637
  H 2.815017 -2.217147 -0.170150
  H 4.742798 -0.875662 0.106125
  H 4.878947 -1.861457 -3.962770
  H 5.115042 -0.121620 -3.899761
  H 2.804338 0.153493 -2.931734
  H 2.572998 -1.605396 -3.031983
  H 6.900482 -1.401339 -1.157909
