 18
 0.000000
  C 0.894605 0.051349 0.225705
  C 2.394732 0.056926 0.126810
  C 3.251828 -0.013350 1.372332
  C 2.535989 -0.089301 2.718259
  C 3.543051 -0.153821 3.861747
  C 2.982711 0.123774 -1.057851
  H 2.446431 0.176343 -1.989501
  H 4.057054 0.129040 -1.151158
  H 0.542565 -0.006453 1.250032
  H 0.485404 -0.803157 -0.311073
  H 0.485406 0.960817 -0.211535
  H 3.902805 0.866183 1.384929
  H 3.902812 -0.888720 1.285905
  H 1.902956 -0.978540 2.758074
  H 1.902943 0.789818 2.857857
  H 4.177916 -1.032227 3.766369
  H 3.028017 -0.207811 4.818532
  H 4.177911 0.729740 3.865789
 18
 9.882008
  C 0.819189 0.052460 0.206008
  C 2.446872 0.059332 0.084183
  C 3.306903 -0.010269 1.317727
  C 2.531519 -0.092826 2.780726
  C 3.541870 -0.156927 3.916785
  C 3.016125 0.126307 -1.102757
  H 2.464681 0.178384 -2.025683
  H 4.089149 0.132407 -1.210827
  H 0.481886 -0.005518 1.233465
  H 0.410695 -0.801189 -0.327955
  H 0.410698 0.960761 -0.228532
  H 3.955318 0.868195 1.331783
  H 3.955322 -0.884738 1.232870
  H 1.900481 -0.980706 2.817441
  H 1.900472 0.785288 2.917090
  H 4.176589 -1.035171 3.818620
  H 3.030511 -0.211021 4.875413
  H 4.176588 0.726791 3.918040
 18
 30.572465
  C 0.780671 0.051664 0.220130
  C 2.526958 0.061073 0.053325
  C 3.378922 -0.007781 1.273623
  C 2.499746 -0.096024 2.837442
  C 3.512641 -0.159316 3.959211
  C 3.019484 0.131099 -1.187686
  H 2.396148 0.180536 -2.063842
  H 4.084586 0.141312 -1.368644
  H 0.515189 -0.007110 1.261691
  H 0.404403 -0.810084 -0.314922
  H 0.404407 0.968134 -0.214580
  H 4.015687 0.874276 1.330756
  H 4.015697 -0.890665 1.231168
  H 1.880299 -0.987891 2.840248
  H 1.880284 0.789863 2.940562
  H 4.146306 -1.039119 3.864684
  H 2.996856 -0.213422 4.917857
  H 4.146311 0.725533 3.964259
 18
 54.976812
  C 0.717003 0.053021 0.196044
  C 2.583531 0.062884 0.021233
  C 3.430985 -0.005125 1.226554
  C 2.486340 -0.100333 2.913841
  C 3.511301 -0.161901 4.005019
  C 3.011784 0.132900 -1.219593
  H 2.343781 0.180317 -2.059924
  H 4.066356 0.145746 -1.447252
  H 0.489360 -0.005763 1.237775
  H 0.394383 -0.814141 -0.354936
  H 0.394386 0.976664 -0.253883
  H 4.050781 0.881636 1.343268
  H 4.050791 -0.899380 1.242772
  H 1.873937 -0.993342 2.860855
  H 1.873916 0.792976 2.961640
  H 4.145630 -1.042144 3.898513
  H 3.013698 -0.216574 4.973918
  H 4.145607 0.724703 3.998214
 18
 82.150380
  C 0.648171 0.053624 0.185375
  C 2.637965 0.065445 -0.024154
  C 3.486227 -0.001914 1.169598
  C 2.472009 -0.103597 2.971596
  C 3.508037 -0.165322 4.065551
  C 3.038741 0.135917 -1.273028
  H 2.352074 0.182559 -2.099612
  H 4.090974 0.150053 -1.523537
  H 0.441049 -0.006091 1.243564
  H 0.330260 -0.819453 -0.367176
  H 0.330263 0.983322 -0.265445
  H 4.099896 0.886443 1.299299
  H 4.099907 -0.899222 1.198538
  H 1.862685 -0.999277 2.904629
  H 1.862676 0.793927 3.005808
  H 4.140867 -1.042867 3.958402
  H 3.014065 -0.220203 5.038080
  H 4.140892 0.718730 4.057807
