 20
 0.000000
  C 1.008212 -0.071295 0.048147
  C 2.504001 -0.083742 0.025159
  C 3.217998 -0.596259 -0.982866
  C 4.656095 -0.606059 -1.002976
  C 5.377031 -1.121853 -2.014024
  C 6.815731 -1.130550 -2.032023
  C 7.534505 -1.642789 -3.036110
  C 9.024653 -1.661145 -3.073049
  H 0.648913 0.394030 0.965383
  H 0.610609 -1.085436 0.008719
  H 0.611759 0.497588 -0.792948
  H 3.005635 0.350534 0.880107
  H 2.705786 -1.029468 -1.833430
  H 5.160089 -0.170144 -0.149237
  H 4.873534 -1.557861 -2.867953
  H 7.321949 -0.695053 -1.179105
  H 7.036355 -2.080106 -3.892582
  H 9.458146 -1.206962 -2.183478
  H 9.383937 -1.115500 -3.947125
  H 9.384463 -2.688912 -3.144057
 20
 -0.351224
  C 1.003303 -0.069219 0.047642
  C 2.495953 -0.088304 0.045523
  C 3.224644 -0.578908 -0.960339
  C 4.659390 -0.616551 -0.980960
  C 5.382956 -1.100559 -2.005570
  C 6.818291 -1.136822 -2.026979
  C 7.538157 -1.617370 -3.043321
  C 9.028398 -1.662326 -3.081504
  H 0.620294 0.603338 0.808874
  H 0.611731 -1.067758 0.249634
  H 0.624093 0.245063 -0.925825
  H 2.991479 0.301204 0.926021
  H 2.721124 -0.976477 -1.834191
  H 5.167286 -0.224973 -0.107309
  H 4.875073 -1.492380 -2.878809
  H 7.323274 -0.743999 -1.152548
  H 7.034123 -2.010230 -3.917790
  H 9.457003 -1.250583 -2.169554
  H 9.402225 -1.094235 -3.933768
  H 9.373527 -2.691471 -3.199892
 20
 -0.439093
  C 1.000034 -0.081115 0.012338
  C 2.489853 -0.144017 0.093564
  C 3.239741 -0.565046 -0.926320
  C 4.674065 -0.615965 -0.954076
  C 5.386511 -1.089800 -1.991225
  C 6.821465 -1.133477 -2.025163
  C 7.530046 -1.606743 -3.053135
  C 9.017361 -1.659317 -3.104372
  H 0.614883 0.750816 0.598329
  H 0.549552 -0.999027 0.390970
  H 0.705407 0.053515 -1.027772
  H 2.952072 0.188359 1.012951
  H 2.746485 -0.921556 -1.824005
  H 5.191624 -0.237648 -0.080726
  H 4.869518 -1.467606 -2.864685
  H 7.335828 -0.753518 -1.150870
  H 7.016667 -1.986953 -3.927495
  H 9.455316 -1.256127 -2.194418
  H 9.386972 -1.087677 -3.956340
  H 9.355371 -2.688374 -3.231654
 20
 -0.369215
  C 1.003005 -0.070831 0.003676
  C 2.485418 -0.201628 0.109355
  C 3.236552 -0.588159 -0.923168
  C 4.671039 -0.644045 -0.946088
  C 5.386109 -1.096279 -1.991196
  C 6.821048 -1.133761 -2.024971
  C 7.531261 -1.586885 -3.059001
  C 9.018752 -1.633953 -3.109622
  H 0.687031 0.908329 0.365142
  H 0.485630 -0.825775 0.594384
  H 0.722036 -0.155013 -1.045523
  H 2.940111 0.057479 1.056169
  H 2.746034 -0.928590 -1.828430
  H 5.187030 -0.276526 -0.067191
  H 4.871214 -1.460606 -2.871670
  H 7.333546 -0.766469 -1.144180
  H 7.019847 -1.954047 -3.940025
  H 9.454737 -1.237470 -2.195712
  H 9.387204 -1.053976 -3.956478
  H 9.360229 -2.660860 -3.245463
 20
 3.918129
  C 1.028240 0.012771 -0.037736
  C 2.474798 -0.295866 0.145688
  C 3.224576 -0.686203 -0.890940
  C 4.661511 -0.738770 -0.910923
  C 5.380471 -1.162573 -1.965338
  C 6.810448 -1.142148 -2.017836
  C 7.526106 -1.570344 -3.061010
  C 9.012943 -1.549351 -3.133926
  H 0.887200 1.089272 0.094115
  H 0.371631 -0.502471 0.656267
  H 0.785674 -0.183122 -1.080585
  H 2.897804 -0.176643 1.132891
  H 2.735436 -1.156098 -1.737333
  H 5.175377 -0.327094 -0.050275
  H 4.870074 -1.568899 -2.828467
  H 7.318905 -0.755116 -1.143879
  H 7.019077 -1.970126 -3.930421
  H 9.443367 -1.117752 -2.233735
  H 9.341170 -0.966421 -3.994686
  H 9.400070 -2.560973 -3.259600
 20
 16.589073
  C 1.076836 0.064032 -0.085666
  C 2.464841 -0.391122 0.218462
  C 3.207071 -0.765107 -0.842838
  C 4.644352 -0.741492 -0.895431
  C 5.368536 -1.240349 -1.916611
  C 6.787718 -1.131379 -2.014817
  C 7.504500 -1.586414 -3.049836
  C 8.987795 -1.496204 -3.157303
  H 1.057785 1.161360 -0.018287
  H 0.281074 -0.326847 0.532724
  H 1.041806 -0.047448 -1.168920
  H 2.824102 -0.431555 1.235841
  H 2.735595 -1.337318 -1.633403
  H 5.157482 -0.288376 -0.055895
  H 4.858855 -1.705553 -2.750954
  H 7.290914 -0.635588 -1.193715
  H 6.998248 -2.028004 -3.899240
  H 9.410228 -0.959197 -2.310394
  H 9.265513 -0.972273 -4.073464
  H 9.430347 -2.492392 -3.204738
 20
 33.892072
  C 1.134571 0.082465 -0.125908
  C 2.459356 -0.446271 0.287344
  C 3.223355 -0.784968 -0.779255
  C 4.637342 -0.723010 -0.863628
  C 5.340444 -1.186369 -1.912353
  C 6.769310 -1.090074 -2.024800
  C 7.472227 -1.570346 -3.050616
  C 8.949903 -1.487007 -3.174254
  H 1.110914 1.182831 -0.191508
  H 0.287030 -0.292379 0.436515
  H 1.300512 -0.076195 -1.214615
  H 2.754032 -0.571943 1.315066
  H 2.786860 -1.448641 -1.515451
  H 5.146280 -0.135204 -0.110484
  H 4.822951 -1.700693 -2.712457
  H 7.284755 -0.588833 -1.212746
  H 6.963048 -2.097972 -3.847839
  H 9.386306 -0.973399 -2.323499
  H 9.234490 -0.983066 -4.096954
  H 9.371814 -2.489462 -3.212475
 20
 61.071400
  C 1.214772 0.082271 -0.101675
  C 2.444258 -0.555415 0.328136
  C 3.196781 -0.771227 -0.812900
  C 4.599775 -0.667678 -0.920630
  C 5.308100 -1.201025 -1.901688
  C 6.725550 -1.077423 -2.021354
  C 7.439065 -1.595356 -3.021705
  C 8.919600 -1.474255 -3.158960
  H 1.283793 1.195409 -0.266980
  H 0.258735 -0.172286 0.367183
  H 1.615168 0.001687 -1.225982
  H 2.728643 -0.794423 1.337457
  H 2.788408 -1.521680 -1.491425
  H 5.106413 -0.098752 -0.153106
  H 4.799678 -1.753924 -2.679818
  H 7.230319 -0.537043 -1.229663
  H 6.935615 -2.133168 -3.815402
  H 9.338683 -0.867792 -2.357602
  H 9.168042 -1.006565 -4.108928
  H 9.391551 -2.463004 -3.148180
 20
 80.571238
  C 1.237885 0.147479 -0.024832
  C 2.375417 -0.579751 0.354734
  C 3.112625 -0.819013 -0.839587
  C 4.556588 -0.720709 -0.925112
  C 5.291969 -1.218521 -1.934318
  C 6.717566 -1.078116 -2.035658
  C 7.449372 -1.575215 -3.036154
  C 8.928556 -1.444583 -3.150231
  H 1.339046 1.177886 -0.333712
  H 0.289174 -0.010100 0.492712
  H 1.957810 -0.050011 -1.345211
  H 2.662685 -0.867890 1.354492
  H 2.703961 -1.565345 -1.515789
  H 5.046976 -0.163103 -0.136460
  H 4.801088 -1.761303 -2.733641
  H 7.205421 -0.536665 -1.234325
  H 6.962625 -2.115019 -3.838935
  H 9.336492 -0.874194 -2.319152
  H 9.194297 -0.947045 -4.083475
  H 9.395598 -2.430383 -3.162617
 20
 63.364825
  C 1.286084 0.239555 0.079128
  C 2.290020 -0.626515 0.355230
  C 3.029375 -0.894833 -0.904178
  C 4.493399 -0.798616 -0.955121
  C 5.256549 -1.286741 -1.948489
  C 6.689608 -1.102336 -2.034010
  C 7.444009 -1.571114 -3.024321
  C 8.918070 -1.372029 -3.136648
  H 1.474574 1.184243 -0.399461
  H 0.344029 0.294931 0.635088
  H 2.266698 -0.144399 -1.423207
  H 2.604236 -0.943607 1.333638
  H 2.600571 -1.640102 -1.581643
  H 4.962496 -0.278303 -0.128188
  H 4.790842 -1.841906 -2.759166
  H 7.152628 -0.553633 -1.223597
  H 6.982533 -2.113579 -3.836279
  H 9.292989 -0.745410 -2.329085
  H 9.162492 -0.897001 -4.089122
  H 9.435020 -2.334733 -3.114148
 20
 42.179621
  C 1.251813 0.181141 0.180943
  C 2.297776 -0.638929 0.309566
  C 3.026889 -0.800430 -0.986462
  C 4.498796 -0.685144 -1.040730
  C 5.255228 -1.181673 -2.012341
  C 6.687695 -1.040417 -2.067779
  C 7.453528 -1.565150 -3.025676
  C 8.937282 -1.447508 -3.085367
  H 1.347768 1.146642 -0.284672
  H 0.394523 0.141786 0.846773
  H 2.344356 -0.091097 -1.528002
  H 2.643313 -1.078224 1.232356
  H 2.671807 -1.669031 -1.562504
  H 4.952630 -0.073296 -0.273374
  H 4.794751 -1.743307 -2.815117
  H 7.143331 -0.467331 -1.268866
  H 6.996897 -2.145684 -3.818451
  H 9.320689 -0.901031 -2.227228
  H 9.239828 -0.934640 -3.998507
  H 9.395339 -2.436858 -3.099415
 20
 24.593275
  C 1.268127 0.175408 0.298523
  C 2.295641 -0.659171 0.251811
  C 2.994291 -0.753996 -1.071612
  C 4.473124 -0.646531 -1.099671
  C 5.253154 -1.179258 -2.045215
  C 6.689495 -1.049813 -2.071287
  C 7.466377 -1.574476 -3.014469
  C 8.950485 -1.453802 -3.054775
  H 1.254557 1.095812 -0.262778
  H 0.507879 0.166105 1.069537
  H 2.423640 0.018031 -1.624590
  H 2.668480 -1.201478 1.107059
  H 2.639400 -1.630464 -1.632036
  H 4.918770 -0.072757 -0.296681
  H 4.806803 -1.746547 -2.853147
  H 7.135348 -0.489387 -1.258939
  H 7.019554 -2.132568 -3.827737
  H 9.317010 -0.851671 -2.226889
  H 9.268077 -0.996015 -3.991978
  H 9.411136 -2.440924 -3.001879
 20
 14.904656
  C 1.270216 0.111845 0.412017
  C 2.324194 -0.656931 0.180975
  C 2.978195 -0.642579 -1.162784
  C 4.463302 -0.551134 -1.173609
  C 5.248517 -1.129838 -2.082016
  C 6.687605 -1.026506 -2.085804
  C 7.472824 -1.601095 -2.996038
  C 8.959633 -1.509514 -3.013145
  H 1.036592 0.989860 -0.166355
  H 0.658279 -0.042374 1.291828
  H 2.474850 0.177523 -1.680633
  H 2.777471 -1.257254 0.956458
  H 2.640085 -1.517691 -1.733555
  H 4.903670 0.040116 -0.380537
  H 4.807417 -1.719650 -2.876436
  H 7.128574 -0.443712 -1.286538
  H 7.030283 -2.181019 -3.796446
  H 9.323009 -0.887508 -2.198666
  H 9.302483 -1.088421 -3.958592
  H 9.399927 -2.502946 -2.920142
 20
 9.042727
  C 1.381457 0.116610 0.538166
  C 2.327412 -0.695237 0.103336
  C 2.923975 -0.599772 -1.267031
  C 4.413813 -0.492190 -1.260019
  C 5.221512 -1.124986 -2.109989
  C 6.659255 -0.999762 -2.099265
  C 7.467660 -1.631037 -2.949471
  C 8.953104 -1.517749 -2.950245
  H 1.055793 0.976928 -0.022070
  H 0.905442 -0.052617 1.490337
  H 2.466127 0.268536 -1.749482
  H 2.731383 -1.470422 0.740829
  H 2.616263 -1.476272 -1.847438
  H 4.830534 0.162079 -0.504634
  H 4.802620 -1.780679 -2.863722
  H 7.077688 -0.348735 -1.341707
  H 7.047403 -2.282067 -3.706019
  H 9.291948 -0.806997 -2.200359
  H 9.308939 -1.195912 -3.929073
  H 9.404796 -2.488548 -2.742163
 20
 8.408456
  C 1.549058 0.163891 0.619093
  C 2.301875 -0.757843 0.047847
  C 2.872167 -0.631233 -1.332301
  C 4.361696 -0.490385 -1.318252
  C 5.192388 -1.141757 -2.130935
  C 6.626500 -0.979815 -2.112163
  C 7.460929 -1.634855 -2.918034
  C 8.943375 -1.484806 -2.905083
  H 1.318065 1.097252 0.134236
  H 1.104455 -0.019854 1.583802
  H 2.411736 0.246368 -1.793006
  H 2.539616 -1.678122 0.565011
  H 2.591949 -1.510665 -1.918719
  H 4.753728 0.212514 -0.594019
  H 4.798019 -1.846305 -2.853094
  H 7.018920 -0.277152 -1.387540
  H 7.066968 -2.336142 -3.643068
  H 9.247780 -0.664638 -2.259183
  H 9.317873 -1.303083 -3.911914
  H 9.410029 -2.402199 -2.542698
