19
 0
 C 0.26863097 -2.47852358 0.01315169
 C -1.24989717 -2.45059861 0.13706318
 C -1.68555269 -3.16113475 1.41748897
 C -1.90211928 -1.06808099 0.08169088
 C -1.07028055 0.18871918 0.05952136
 O -3.13460414 -0.96952624 0.07673930
 H 0.63561816 -3.51056626 -0.00684549
 H 0.75136801 -1.97186329 0.85588929
 H 0.59774890 -1.99572271 -0.91294476
 H -1.65359603 -3.00109573 -0.72285369
 H -1.33464922 -2.62515673 2.30615950
 H -1.28953801 -4.18162560 1.45314661
 H -2.77720864 -3.22619433 1.48158060
 H 0.00000000 0.00000000 0.00000000
 H -1.26686009 0.76002557 0.97068816
 H -1.35427209 0.78015676 -0.81580179
 O 2.30000000 0.00000000 0.00000000
 H 2.98474093 0.23913281 0.64258244
 H 2.78881206 -0.44606170 -0.70784698
