14

C 1.003838 0.114512 0.371283
C 2.483509 0.127864 0.408732
H 3.0320827420286824 0.47753881628169137 1.2582579692410905
C 3.114265 -0.34062 -0.731863
C 4.487249 -0.433583 -0.976476
C 5.139251 -0.877936 -2.116155
H 4.765253012050341 -1.2434094265891658 -3.049672369665279
O 6.465053 -0.879725 -2.128795
H 0.542682 0.489481 1.278452
H 0.645641 -0.902866 0.208661
H 0.641306 0.72027 -0.464066
H 2.450995 -0.661077 -1.51899
H 5.123166 -0.112008 -0.158233
H 6.852365 -0.553437 -1.295021
