 12
 0.000000
  C 0.959155 0.152891 0.432984
  C 2.420161 0.137183 0.393300
  C 3.219964 0.592026 1.524115
  H 2.621222 0.929382 2.364193
  C 3.037149 -0.325932 -0.758956
  H 4.107720 -0.369789 -0.868935
  H 0.564759 0.530310 1.371687
  H 0.563903 -0.850908 0.247485
  H 0.563403 0.748701 -0.395612
  H 3.899088 1.390983 1.208439
  H 3.899559 -0.202807 1.848981
  H 2.416876 -0.654852 -1.576554
 12
 5.685897
  C 0.985265 0.144367 0.411684
  C 2.434461 0.129031 0.373106
  C 3.206351 0.590782 1.521026
  H 2.596673 0.924705 2.353121
  C 3.080050 -0.322418 -0.750100
  H 4.127160 -0.395891 -0.933935
  H 0.593328 0.520944 1.348116
  H 0.587067 -0.856201 0.220744
  H 0.586688 0.734036 -0.418685
  H 3.890593 1.389139 1.216254
  H 3.891296 -0.195984 1.853074
  H 2.296774 -0.585021 -1.402513
 12
 16.178720
  C 0.996510 0.135449 0.389455
  C 2.456984 0.123455 0.359077
  C 3.202562 0.592897 1.526273
  H 2.580525 0.922175 2.347597
  C 3.115773 -0.326708 -0.760650
  H 4.136348 -0.422708 -0.999678
  H 0.598552 0.513258 1.328783
  H 0.594627 -0.871288 0.200963
  H 0.594136 0.731161 -0.443609
  H 3.890499 1.394408 1.232677
  H 3.891679 -0.188255 1.868165
  H 2.208499 -0.523635 -1.250400
 12
 29.530947
  C 1.001212 0.129436 0.374751
  C 2.458600 0.116969 0.343034
  C 3.193911 0.596015 1.534033
  H 2.566192 0.922462 2.348583
  C 3.136153 -0.334768 -0.780575
  H 4.169040 -0.447130 -1.060227
  H 0.612218 0.505093 1.308877
  H 0.591988 -0.879707 0.194415
  H 0.591006 0.732972 -0.455011
  H 3.886315 1.404172 1.246835
  H 3.888008 -0.185563 1.885080
  H 2.150604 -0.473842 -1.126452
 12
 43.736794
  C 0.999100 0.124308 0.361820
  C 2.463692 0.110655 0.327279
  C 3.189991 0.595536 1.532910
  H 2.552625 0.923797 2.351887
  C 3.160482 -0.341901 -0.798227
  H 4.173359 -0.457801 -1.086413
  H 0.615269 0.501908 1.301011
  H 0.585555 -0.878285 0.190511
  H 0.584772 0.729310 -0.456318
  H 3.879882 1.401593 1.251263
  H 3.881525 -0.180440 1.886398
  H 2.132604 -0.432867 -1.024710
 12
 56.912386
  C 0.987525 0.123786 0.360327
  C 2.462148 0.107429 0.318765
  C 3.183028 0.590046 1.519068
  H 2.540491 0.917610 2.336015
  C 3.186531 -0.343349 -0.801775
  H 4.207134 -0.456816 -1.082925
  H 0.611932 0.502971 1.303859
  H 0.570449 -0.872310 0.197366
  H 0.570342 0.729513 -0.445884
  H 3.871057 1.397489 1.238358
  H 3.872172 -0.186208 1.873943
  H 2.122773 -0.399874 -0.943770
 12
 60.830383
  C 0.952751 0.127112 0.369795
  C 2.464337 0.072468 0.231507
  C 3.210746 0.586509 1.510559
  H 2.475689 0.883396 2.258200
  C 3.259779 -0.318805 -0.738837
  H 4.251295 -0.460461 -1.086937
  H 0.659061 0.513809 1.331004
  H 0.523426 -0.868864 0.268203
  H 0.519645 0.777576 -0.396855
  H 3.837661 1.424349 1.234568
  H 3.842992 -0.207050 1.887375
  H 2.150910 -0.401628 -0.950032
 12
 64.885495
  C 0.950854 0.125911 0.364399
  C 2.463718 0.075200 0.236596
  C 3.204201 0.587103 1.511944
  H 2.472277 0.879375 2.253496
  C 3.269921 -0.319888 -0.740333
  H 4.247246 -0.473535 -1.113906
  H 0.661360 0.516381 1.333194
  H 0.515124 -0.872237 0.268343
  H 0.514068 0.778140 -0.396318
  H 3.825569 1.436990 1.250271
  H 3.832497 -0.203525 1.904041
  H 2.133041 -0.379022 -0.897927
 12
 68.846351
  C 0.944172 0.125166 0.363022
  C 2.466783 0.074987 0.235929
  C 3.195186 0.589902 1.512654
  H 2.458592 0.882604 2.254613
  C 3.275162 -0.318751 -0.737552
  H 4.250258 -0.477340 -1.127597
  H 0.660126 0.518259 1.336934
  H 0.511236 -0.862026 0.271254
  H 0.505498 0.775096 -0.393812
  H 3.811214 1.436870 1.256254
  H 3.833886 -0.207195 1.915446
  H 2.113297 -0.362297 -0.852554
 12
 71.979709
  C 0.938763 0.126331 0.365162
  C 2.469045 0.075704 0.242083
  C 3.185221 0.591986 1.524725
  H 2.451294 0.881399 2.266469
  C 3.281995 -0.319406 -0.736162
  H 4.239107 -0.488304 -1.153440
  H 0.657679 0.518413 1.335695
  H 0.502717 -0.867577 0.272465
  H 0.502388 0.779522 -0.393330
  H 3.806504 1.444558 1.268285
  H 3.818500 -0.194692 1.921340
  H 2.102994 -0.346549 -0.811585
 12
 72.453748
  C 0.929872 0.123151 0.373169
  C 2.460757 0.080065 0.248331
  C 3.178693 0.598895 1.528866
  H 2.446055 0.891415 2.270606
  C 3.281232 -0.320760 -0.724655
  H 4.230842 -0.508489 -1.150687
  H 0.649675 0.503501 1.348166
  H 0.497302 -0.872257 0.268389
  H 0.491164 0.782541 -0.378136
  H 3.802596 1.450297 1.275038
  H 3.810501 -0.189851 1.925018
  H 2.101729 -0.308893 -0.815038
 12
 75.453054
  C 0.918375 0.126714 0.380496
  C 2.449812 0.084681 0.244381
  C 3.169696 0.601073 1.528160
  H 2.437988 0.895386 2.271934
  C 3.286036 -0.320489 -0.717092
  H 4.235794 -0.513649 -1.143758
  H 0.642199 0.506446 1.357379
  H 0.487375 -0.868687 0.274255
  H 0.475889 0.780965 -0.367822
  H 3.798638 1.451316 1.277518
  H 3.801355 -0.191131 1.920109
  H 2.101100 -0.293526 -0.792639
 12
 77.948615
  C 0.912258 0.128502 0.383716
  C 2.449595 0.089717 0.244653
  C 3.160996 0.603963 1.532146
  H 2.430111 0.897220 2.277077
  C 3.288208 -0.322665 -0.713135
  H 4.234126 -0.522568 -1.143913
  H 0.641166 0.507020 1.361707
  H 0.482878 -0.867246 0.279365
  H 0.464902 0.783536 -0.361797
  H 3.789813 1.454445 1.284157
  H 3.792914 -0.186854 1.925740
  H 2.081861 -0.276956 -0.766444
 12
 79.550409
  C 0.896678 0.123071 0.387508
  C 2.435590 0.095981 0.253392
  C 3.158218 0.608999 1.533768
  H 2.434175 0.917985 2.279114
  C 3.290032 -0.321585 -0.696837
  H 4.233868 -0.534104 -1.124891
  H 0.627213 0.498435 1.368784
  H 0.473731 -0.875082 0.282530
  H 0.440966 0.778435 -0.354211
  H 3.802891 1.446668 1.283072
  H 3.779785 -0.188129 1.929553
  H 2.070622 -0.231873 -0.758731
