 17
 0.000000
  H 1.489151 0.157328 0.440330
  C 2.570205 0.154469 0.435012
  C 3.262361 0.634399 1.630616
  C 2.336878 1.084595 2.749841
  H 2.912769 1.427201 3.604612
  C 3.182111 -0.306502 -0.711493
  C 4.566939 -0.384887 -0.905702
  C 5.124468 -0.854901 -2.077828
  H 4.521180 -1.191599 -2.914923
  O 6.390790 -0.949426 -2.317074
  H 3.930903 1.459730 1.354775
  H 3.929621 -0.153305 2.002701
  H 1.695938 0.268525 3.075703
  H 1.697407 1.900428 2.420532
  H 2.546617 -0.632018 -1.523396
  H 5.220929 -0.064818 -0.107039
  H 6.975339 -0.653708 -1.586726
 17
 0.145812
  H 1.500295 0.240109 0.431747
  C 2.578118 0.157702 0.426838
  C 3.261632 0.571162 1.654919
  C 2.328534 1.083445 2.741621
  H 2.892972 1.371011 3.623751
  C 3.192603 -0.310032 -0.713013
  C 4.578496 -0.338938 -0.914129
  C 5.131669 -0.892501 -2.053735
  H 4.497834 -1.357576 -2.802794
  O 6.387306 -0.938514 -2.345216
  H 4.007677 1.340874 1.417814
  H 3.851377 -0.269044 2.042607
  H 1.613482 0.318636 3.033784
  H 1.770590 1.951547 2.397247
  H 2.565251 -0.668444 -1.516926
  H 5.225008 0.109702 -0.173191
  H 6.986607 -0.524628 -1.687652
 17
 2.063452
  H 1.476139 0.322132 0.473718
  C 2.544030 0.178340 0.387734
  C 3.264177 0.496929 1.629757
  C 2.375406 1.079024 2.719796
  H 2.956459 1.283373 3.614642
  C 3.140276 -0.277886 -0.762349
  C 4.533362 -0.307488 -0.924910
  C 5.155641 -0.956240 -1.974446
  H 4.599417 -1.647814 -2.600180
  O 6.403294 -0.870025 -2.289261
  H 4.085232 1.194064 1.427177
  H 3.748679 -0.412103 2.007947
  H 1.578892 0.388665 2.987487
  H 1.919220 2.009849 2.391126
  H 2.517237 -0.593710 -1.586969
  H 5.125985 0.227731 -0.189155
  H 6.933722 -0.251299 -1.743782
 17
 7.175293
  H 1.472056 0.406225 0.504689
  C 2.521869 0.222328 0.347061
  C 3.255773 0.421246 1.612208
  C 2.411787 1.078483 2.695209
  H 2.989946 1.196509 3.605804
  C 3.107835 -0.239960 -0.800324
  C 4.506202 -0.314001 -0.906468
  C 5.196740 -1.013772 -1.880214
  H 4.759321 -1.903127 -2.336027
  O 6.400160 -0.778754 -2.273588
  H 4.157124 1.024063 1.467613
  H 3.597740 -0.550539 1.977835
  H 1.536812 0.479699 2.931344
  H 2.072427 2.064802 2.375188
  H 2.494185 -0.498371 -1.652265
  H 5.056162 0.248595 -0.150205
  H 6.803402 0.056446 -1.937368
 17
 14.858121
  H 1.460275 0.422512 0.523112
  C 2.505838 0.253159 0.315046
  C 3.270786 0.410833 1.576020
  C 2.428678 1.015741 2.702117
  H 3.023529 1.114798 3.614263
  C 3.078165 -0.143863 -0.862719
  C 4.476068 -0.233571 -0.952933
  C 5.231299 -1.058180 -1.771693
  H 4.883344 -2.062333 -2.006395
  O 6.386372 -0.793064 -2.272695
  H 4.145032 1.058862 1.455570
  H 3.632142 -0.562097 1.900414
  H 1.577938 0.391616 2.931195
  H 2.060115 2.001075 2.423383
  H 2.469374 -0.313755 -1.734477
  H 4.974964 0.288799 -0.128849
  H 6.718757 0.116248 -2.124462
 17
 28.370505
  H 1.447235 0.619681 0.489603
  C 2.455458 0.305464 0.267300
  C 3.227532 0.288011 1.522931
  C 2.505347 1.014495 2.666266
  H 3.144686 1.065067 3.547093
  C 2.995513 -0.181105 -0.909834
  C 4.372263 -0.343490 -0.946126
  C 5.276370 -1.074766 -1.697217
  H 5.242331 -2.154062 -1.699242
  O 6.375592 -0.630608 -2.203310
  H 4.166246 0.848922 1.467104
  H 3.516758 -0.719094 1.818995
  H 1.586768 0.492511 2.951652
  H 2.255916 2.022903 2.382028
  H 2.384017 -0.302709 -1.781364
  H 4.804774 0.258797 -0.078318
  H 6.479682 0.337989 -2.249650
 17
 55.538450
  H 1.384572 0.571027 0.465448
  C 2.430054 0.271953 0.255092
  C 3.310390 0.279953 1.443824
  C 2.591601 0.996606 2.621733
  H 3.188246 0.972904 3.537394
  C 2.915372 -0.110939 -0.946141
  C 4.286603 -0.389598 -1.007728
  C 5.339157 -1.081862 -1.559623
  H 5.358383 -2.204753 -1.511823
  O 6.433316 -0.583416 -2.117201
  H 4.253256 0.899917 1.380089
  H 3.521938 -0.744844 1.773415
  H 1.659403 0.528541 2.833972
  H 2.367022 1.977993 2.370171
  H 2.285198 -0.175259 -1.804323
  H 4.619362 0.313335 0.175427
  H 6.359269 0.393439 -2.315176
 17
 74.781691
  H 1.385277 0.585228 0.364224
  C 2.398183 0.257655 0.218396
  C 3.306295 0.258397 1.396964
  C 2.662286 0.972209 2.603903
  H 3.300176 0.944185 3.482278
  C 2.887713 -0.173519 -0.993479
  C 4.209633 -0.480670 -1.128554
  C 5.294919 -1.080721 -1.563760
  H 5.415550 -2.157937 -1.454973
  O 6.419995 -0.525176 -2.035224
  H 4.277271 0.926666 1.433920
  H 3.571111 -0.761293 1.692046
  H 1.736293 0.460139 2.852298
  H 2.422843 2.005860 2.372329
  H 2.242544 -0.218703 -1.860511
  H 4.435851 0.490008 0.460857
  H 6.311636 0.419750 -2.236567
 17
 77.181509
  H 1.442869 0.577270 0.331574
  C 2.460755 0.254981 0.213666
  C 3.358605 0.264934 1.429527
  C 2.626878 0.981955 2.594079
  H 3.188237 0.945077 3.523235
  C 2.923888 -0.190839 -1.006111
  C 4.207314 -0.558375 -1.227095
  C 5.312934 -1.111700 -1.631227
  H 5.490971 -2.176444 -1.494261
  O 6.421710 -0.508333 -2.130968
  H 4.321896 0.947637 1.670891
  H 3.592270 -0.764056 1.729775
  H 1.680729 0.476623 2.764061
  H 2.412679 2.018122 2.350487
  H 2.236083 -0.220953 -1.841758
  H 4.302654 0.568781 0.695728
  H 6.252927 0.419127 -2.358024
 17
 77.569567
  H 1.502097 0.614097 0.311960
  C 2.520513 0.288222 0.208996
  C 3.396105 0.330142 1.467120
  C 2.561733 0.954930 2.609430
  H 3.063596 0.892526 3.570519
  C 2.962270 -0.215980 -0.998571
  C 4.224465 -0.615659 -1.264648
  C 5.334306 -1.160964 -1.658677
  H 5.539182 -2.214194 -1.480680
  O 6.418755 -0.557536 -2.219890
  H 4.362978 0.961374 1.813998
  H 3.682106 -0.701582 1.705976
  H 1.624140 0.413981 2.698962
  H 2.327429 1.994680 2.402644
  H 2.242251 -0.276437 -1.806554
  H 4.197860 0.861606 0.752236
  H 6.220255 0.353252 -2.485010
 17
 75.609288
  H 1.607817 0.713783 0.300559
  C 2.612178 0.350056 0.193341
  C 3.466471 0.354622 1.536608
  C 2.547091 0.929211 2.632727
  H 3.004284 0.839314 3.613230
  C 3.012692 -0.217083 -1.012262
  C 4.253153 -0.656257 -1.293377
  C 5.373568 -1.191352 -1.669232
  H 5.595412 -2.231523 -1.441862
  O 6.435277 -0.599137 -2.273128
  H 4.412758 0.920821 1.831338
  H 3.733697 -0.688522 1.734872
  H 1.607100 0.384068 2.659960
  H 2.320965 1.975060 2.450326
  H 2.263418 -0.291988 -1.792357
  H 3.911224 0.920489 0.588658
  H 6.221633 0.296325 -2.576548
 17
 59.574091
  H 1.703613 0.885061 0.280950
  C 2.701853 0.490003 0.207109
  C 3.431409 0.371373 1.623201
  C 2.475331 0.892170 2.694849
  H 2.900644 0.735516 3.682135
  C 3.077043 -0.206274 -0.986828
  C 4.297085 -0.665638 -1.261972
  C 5.428257 -1.190366 -1.624051
  H 5.701967 -2.175229 -1.249336
  O 6.416689 -0.665502 -2.372066
  H 4.382721 0.877714 1.861974
  H 3.644025 -0.692921 1.776355
  H 1.522107 0.370880 2.654952
  H 2.283115 1.954159 2.572783
  H 2.302340 -0.338300 -1.737418
  H 3.683485 1.120180 0.330341
  H 6.154981 0.166522 -2.796718
 17
 35.437410
  H 1.825700 1.096498 0.257616
  C 2.828630 0.701495 0.239943
  C 3.372668 0.359098 1.653830
  C 2.393981 0.806115 2.732469
  H 2.761884 0.523384 3.715551
  C 3.204080 -0.150484 -0.908028
  C 4.364393 -0.662197 -1.178705
  C 5.520331 -1.190109 -1.565324
  H 5.930838 -2.031577 -1.007017
  O 6.314298 -0.799526 -2.534385
  H 4.344899 0.790015 1.894554
  H 3.506192 -0.725640 1.727259
  H 1.419588 0.343815 2.591731
  H 2.262405 1.885595 2.720420
  H 2.397823 -0.332948 -1.619183
  H 3.631803 1.455820 0.117464
  H 5.935842 -0.105276 -3.108413
 17
 26.081699
  H 1.901970 1.175806 0.255776
  C 2.951485 0.897533 0.247524
  C 3.387456 0.410503 1.635227
  C 2.348707 0.734618 2.700755
  H 2.690588 0.391751 3.674588
  C 3.242558 -0.131387 -0.818070
  C 4.356609 -0.642897 -1.172219
  C 5.490414 -1.265215 -1.561907
  H 5.797759 -2.183304 -1.060554
  O 6.309088 -0.878835 -2.488458
  H 4.341071 0.873674 1.898195
  H 3.558023 -0.669482 1.632249
  H 1.401360 0.241785 2.490445
  H 2.170985 1.806368 2.756650
  H 2.340849 -0.448926 -1.344535
  H 3.549560 1.766490 -0.031137
  H 6.055416 -0.061252 -2.967421
 17
 26.378531
  H 1.928298 1.251730 0.273842
  C 2.982785 1.003533 0.216522
  C 3.475916 0.585195 1.628015
  C 2.345505 0.626192 2.642428
  H 2.726833 0.364623 3.627530
  C 3.214560 -0.132523 -0.735974
  C 4.329901 -0.637077 -1.132464
  C 5.357678 -1.352523 -1.616693
  H 5.453880 -2.393634 -1.304246
  O 6.305363 -0.965102 -2.412394
  H 4.272635 1.265372 1.931268
  H 3.897417 -0.420314 1.614497
  H 1.562961 -0.087426 2.394121
  H 1.906353 1.619316 2.698488
  H 2.296770 -0.540074 -1.163354
  H 3.562553 1.855223 -0.129564
  H 6.274489 -0.025281 -2.684913
