 15
 0.000000
  C 0.931727 0.054789 0.218030
  C 2.427656 0.062230 0.064260
  C 3.253562 -0.010476 1.325128
  H 2.630094 -0.059367 2.210148
  C 3.025350 0.127073 -1.119118
  C 2.360648 0.200274 -2.453714
  H 1.280060 0.196200 -2.380863
  H 4.107003 0.130104 -1.162867
  H 0.649044 -0.017117 1.263934
  H 0.491924 -0.795147 -0.303743
  H 0.490548 0.966842 -0.181310
  H 3.900523 0.862885 1.409164
  H 3.897107 -0.890128 1.309731
  H 2.676956 -0.644780 -3.071067
  H 2.676423 1.107827 -2.975146
 15
 -0.004920
  C 0.932474 0.060809 0.221859
  C 2.428273 0.049592 0.064158
  C 3.250873 -0.056392 1.322264
  H 2.618762 -0.140575 2.201982
  C 3.025123 0.151494 -1.116862
  C 2.363897 0.227119 -2.455439
  H 1.282743 0.165055 -2.385317
  H 4.107271 0.175254 -1.162752
  H 0.656705 0.264194 1.253475
  H 0.503410 -0.900399 -0.060978
  H 0.491085 0.832186 -0.406149
  H 3.887348 0.819791 1.440163
  H 3.899416 -0.930717 1.282941
  H 2.716434 -0.590346 -3.084863
  H 2.631314 1.159559 -2.954025
 15
 0.317327
  C 0.932026 0.070246 0.229713
  C 2.424613 0.033547 0.061210
  C 3.241642 -0.110661 1.318786
  H 2.601744 -0.228403 2.189080
  C 3.017817 0.197162 -1.114221
  C 2.369736 0.245812 -2.461988
  H 1.295439 0.099513 -2.415561
  H 4.098138 0.266231 -1.166412
  H 0.679902 0.533725 1.181772
  H 0.501719 -0.930477 0.214573
  H 0.485962 0.668592 -0.560758
  H 3.874103 0.762815 1.472810
  H 3.892843 -0.981133 1.251979
  H 2.793636 -0.537317 -3.090828
  H 2.573929 1.200573 -2.948467
 15
 2.247661
  C 0.931393 0.074142 0.230464
  C 2.423150 0.033442 0.064107
  C 3.235073 -0.173580 1.314368
  H 2.588098 -0.346290 2.170325
  C 3.000165 0.298662 -1.100794
  C 2.374862 0.247826 -2.461485
  H 1.317614 0.003875 -2.434037
  H 4.070434 0.462890 -1.164552
  H 0.697258 0.749498 1.054887
  H 0.498791 -0.897659 0.455845
  H 0.494714 0.510543 -0.664279
  H 3.862812 0.691537 1.526195
  H 3.890922 -1.034824 1.196800
  H 2.884396 -0.519620 -3.044408
  H 2.502420 1.195353 -2.986793
 15
 7.935403
  C 0.926086 0.094512 0.229159
  C 2.423352 0.101632 0.086787
  C 3.244104 -0.232327 1.295906
  H 2.603710 -0.547158 2.116127
  C 2.952742 0.462113 -1.074878
  C 2.380877 0.218617 -2.445434
  H 1.345557 -0.103859 -2.427221
  H 4.003888 0.727869 -1.161819
  H 0.670626 0.882937 0.945958
  H 0.500209 -0.835198 0.584196
  H 0.517601 0.435132 -0.713393
  H 3.839652 0.615386 1.633315
  H 3.928499 -1.039373 1.055073
  H 2.974123 -0.571189 -2.905861
  H 2.457900 1.098438 -3.080490
 15
 19.698461
  C 0.906131 0.112538 0.238271
  C 2.402703 0.127819 0.108786
  C 3.258830 -0.289270 1.262845
  H 2.645112 -0.567616 2.114861
  C 2.860939 0.605183 -1.057554
  C 2.411035 0.166464 -2.424172
  H 1.463583 -0.371082 -2.409712
  H 3.864541 1.027313 -1.128732
  H 0.630934 0.949620 0.892972
  H 0.445799 -0.797270 0.613037
  H 0.573326 0.511051 -0.724425
  H 3.947511 0.496587 1.579365
  H 3.862010 -1.140820 0.958478
  H 3.177241 -0.511917 -2.805090
  H 2.327186 0.999770 -3.117037
 15
 39.228533
  C 0.900045 0.152642 0.232463
  C 2.397222 0.160936 0.151728
  C 3.291962 -0.352315 1.225125
  H 2.706706 -0.762995 2.040609
  C 2.765949 0.691881 -1.029707
  C 2.413093 0.107304 -2.371384
  H 1.527087 -0.518524 -2.330542
  H 3.708074 1.240704 -1.133881
  H 0.569099 1.060208 0.760141
  H 0.397599 -0.698519 0.666249
  H 0.723393 0.595026 -0.779121
  H 3.936327 0.425441 1.629625
  H 3.926787 -1.132184 0.816100
  H 3.261224 -0.504482 -2.673159
  H 2.275363 0.863882 -3.148416
 15
 63.256537
  C 0.897727 0.173518 0.244084
  C 2.393777 0.085396 0.163191
  C 3.311235 -0.403051 1.231213
  H 2.737406 -0.746870 2.102000
  C 2.706026 0.686026 -1.029816
  C 2.397342 0.075237 -2.385133
  H 1.590676 -0.627842 -2.337908
  H 3.669002 1.282679 -1.090610
  H 0.500980 1.115261 0.666742
  H 0.336844 -0.666566 0.626088
  H 0.939932 0.763657 -0.753381
  H 3.970655 0.411533 1.562074
  H 3.937594 -1.193960 0.881658
  H 3.304111 -0.454060 -2.741440
  H 2.142074 0.839351 -3.135823
 15
 81.656958
  C 0.911876 0.192066 0.316195
  C 2.324325 0.124494 0.206222
  C 3.295454 -0.438057 1.184036
  H 2.776690 -0.893384 2.025114
  C 2.607206 0.779055 -1.021960
  C 2.420331 0.046808 -2.347919
  H 1.607984 -0.676730 -2.303876
  H 3.516212 1.392169 -1.080982
  H 0.467250 1.136809 0.601451
  H 0.355968 -0.635187 0.765821
  H 1.159949 0.887075 -0.925615
  H 3.940043 0.358913 1.561838
  H 3.940912 -1.182997 0.716150
  H 3.340700 -0.489814 -2.593405
  H 2.221478 0.748402 -3.157736
 15
 61.355130
  C 0.911111 0.165881 0.439303
  C 2.258645 0.111352 0.232355
  C 3.273748 -0.472908 1.137657
  H 2.809624 -0.932389 2.001123
  C 2.541898 0.823713 -1.038572
  C 2.457710 0.029023 -2.358524
  H 1.625659 -0.674301 -2.353249
  H 3.385312 1.501362 -1.053778
  H 0.419875 1.116592 0.586969
  H 0.370089 -0.643974 0.939175
  H 1.384219 1.011193 -1.048507
  H 3.910276 0.330338 1.492786
  H 3.909564 -1.194529 0.624899
  H 3.377398 -0.534883 -2.534438
  H 2.318475 0.718377 -3.183019
 15
 33.603893
  C 0.882793 0.129941 0.483852
  C 2.194347 0.133463 0.206041
  C 3.275843 -0.486604 1.003972
  H 2.874586 -1.081765 1.816484
  C 2.473474 0.943647 -1.036217
  C 2.487348 -0.008544 -2.253048
  H 1.657811 -0.703296 -2.196139
  H 3.395783 1.513487 -1.038312
  H 0.325961 1.050103 0.536289
  H 0.383123 -0.647557 1.062439
  H 1.440974 1.327288 -1.113715
  H 3.868540 0.322865 1.414203
  H 3.931900 -1.114847 0.409701
  H 3.414069 -0.583893 -2.302552
  H 2.430186 0.566443 -3.171867
 15
 16.623303
  C 0.864710 0.150416 0.581240
  C 2.139012 0.124516 0.193417
  C 3.251446 -0.526558 0.946730
  H 2.879423 -1.039216 1.829744
  C 2.459030 0.934325 -1.039693
  C 2.550419 -0.005026 -2.253220
  H 1.717590 -0.703406 -2.251438
  H 3.350973 1.546110 -0.969428
  H 0.240203 1.021561 0.481923
  H 0.443358 -0.594112 1.245827
  H 1.492401 1.421219 -1.180557
  H 3.934864 0.262899 1.255637
  H 3.817727 -1.235704 0.341241
  H 3.476817 -0.577944 -2.245577
  H 2.520708 0.576153 -3.171530
 15
 4.477024
  C 0.854381 0.127095 0.649205
  C 2.100089 0.149548 0.197996
  C 3.241303 -0.509258 0.906793
  H 2.899731 -1.043595 1.789336
  C 2.430080 0.939273 -1.040651
  C 2.558243 -0.010724 -2.238017
  H 1.675693 -0.641430 -2.311502
  H 3.344032 1.520210 -0.935253
  H 0.110018 0.848115 0.359767
  H 0.561018 -0.548037 1.438761
  H 1.553066 1.556767 -1.228553
  H 3.944214 0.264048 1.214714
  H 3.777001 -1.204853 0.260844
  H 3.432623 -0.650612 -2.139446
  H 2.657190 0.558686 -3.159680
 15
 0.852572
  C 0.855185 0.190520 0.775865
  C 2.057558 0.183800 0.223891
  C 3.207932 -0.561233 0.827480
  H 2.926359 -1.003959 1.778319
  C 2.336990 0.932553 -1.051826
  C 2.656084 0.002793 -2.221498
  H 1.813350 -0.656116 -2.419124
  H 3.177423 1.615302 -0.897937
  H 0.033124 0.736427 0.343819
  H 0.640459 -0.342887 1.685694
  H 1.456037 1.525569 -1.303904
  H 4.048881 0.111703 0.988836
  H 3.541599 -1.356839 0.163158
  H 3.530323 -0.607390 -2.010553
  H 2.857378 0.584990 -3.117905
