 23
 0.000000
  C 0.990865 0.145988 0.414427
  C 2.465722 0.137341 0.392602
  C 3.233475 0.606324 1.559647
  H 2.616532 0.937999 2.385530
  C 3.074829 -0.328859 -0.767859
  C 4.450262 -0.414202 -0.980844
  C 5.126139 -0.867249 -2.110577
  C 4.620569 -1.388554 -3.410055
  C 3.130716 -1.502182 -3.693937
  H 2.992349 -1.902752 -4.692480
  O 6.447204 -0.865621 -2.107055
  H 0.587902 0.521707 1.349826
  H 0.607183 -0.861494 0.248359
  H 0.606934 0.758610 -0.402356
  H 3.888084 1.427777 1.261538
  H 3.888376 -0.192809 1.912669
  H 2.410964 -0.644585 -1.553623
  H 5.081656 -0.085938 -0.163302
  H 5.081413 -2.374900 -3.536375
  H 5.081811 -0.763325 -4.183097
  H 2.649224 -0.528507 -3.654572
  H 2.648919 -2.178554 -2.992628
  H 6.834664 -0.532575 -1.275836
 23
 0.770840
  C 0.970579 0.148310 0.546914
  C 2.430170 0.147342 0.361642
  C 3.283728 0.595634 1.480941
  H 2.681062 0.911352 2.324871
  C 2.940950 -0.296346 -0.853106
  C 4.314134 -0.358061 -1.085214
  C 5.078390 -0.870016 -2.124594
  C 4.669144 -1.432713 -3.432849
  C 3.188747 -1.500551 -3.770298
  H 3.075514 -1.930309 -4.762944
  O 6.386052 -0.877212 -1.969322
  H 0.677908 0.480551 1.539766
  H 0.568931 -0.852362 0.373036
  H 0.498896 0.789389 -0.201575
  H 3.914058 1.435737 1.181492
  H 3.940012 -0.210314 1.816279
  H 2.235783 -0.619904 -1.597610
  H 4.915188 0.025030 -0.268236
  H 5.102061 -2.436683 -3.488716
  H 5.193083 -0.846877 -4.195555
  H 2.741986 -0.508893 -3.778867
  H 2.655329 -2.134683 -3.065988
  H 6.683796 -0.522470 -1.111696
 23
 1.324194
  C 0.997623 0.062307 0.565348
  C 2.448742 0.176094 0.345041
  C 3.295548 0.657633 1.459132
  H 2.687580 0.965933 2.308182
  C 2.980872 -0.239468 -0.868630
  C 4.347384 -0.267761 -1.101239
  C 5.090278 -0.884445 -2.103722
  C 4.662433 -1.475534 -3.398676
  C 3.188122 -1.461922 -3.772213
  H 3.071884 -1.912671 -4.755551
  O 6.403835 -0.973302 -1.936307
  H 0.710179 0.317659 1.579268
  H 0.654951 -0.948179 0.337714
  H 0.462958 0.710892 -0.130959
  H 3.904355 1.508959 1.153417
  H 3.967654 -0.129762 1.799599
  H 2.290813 -0.603552 -1.612654
  H 4.954701 0.160593 -0.310678
  H 5.034353 -2.506756 -3.412147
  H 5.238727 -0.946836 -4.167992
  H 2.802234 -0.446304 -3.819779
  H 2.598351 -2.046025 -3.070042
  H 6.721251 -0.612388 -1.083302
 23
 4.026749
  C 0.996998 0.057539 0.668847
  C 2.428038 0.184297 0.319394
  C 3.338411 0.658599 1.389550
  H 2.775023 0.970211 2.259210
  C 2.895912 -0.218923 -0.921116
  C 4.264545 -0.219827 -1.181270
  C 5.070168 -0.880340 -2.111620
  C 4.710563 -1.512101 -3.403861
  C 3.252775 -1.477144 -3.818169
  H 3.145738 -1.952089 -4.788730
  O 6.358443 -0.963555 -1.832554
  H 0.802285 0.271076 1.714193
  H 0.631384 -0.942842 0.433867
  H 0.401780 0.730643 0.049260
  H 3.934456 1.511070 1.066301
  H 4.011442 -0.139961 1.708162
  H 2.182395 -0.598655 -1.636198
  H 4.849474 0.256218 -0.403256
  H 5.061627 -2.551270 -3.368205
  H 5.326443 -1.020877 -4.166273
  H 2.894043 -0.455839 -3.899244
  H 2.635429 -2.021002 -3.110557
  H 6.593268 -0.581042 -0.966503
 23
 5.948568
  C 1.011916 -0.017848 0.712436
  C 2.400647 0.206751 0.291104
  C 3.326906 0.722844 1.346388
  H 2.783253 1.024133 2.236269
  C 2.905642 -0.181851 -0.958524
  C 4.282266 -0.138852 -1.218281
  C 5.072035 -0.855025 -2.101570
  C 4.710571 -1.549778 -3.362072
  C 3.248866 -1.502321 -3.809461
  H 3.140148 -2.022425 -4.758422
  O 6.353065 -0.948738 -1.831832
  H 0.887636 0.133466 1.776096
  H 0.674082 -1.018399 0.444397
  H 0.346733 0.657513 0.174722
  H 3.900552 1.585020 1.009432
  H 4.022157 -0.064903 1.642204
  H 2.224666 -0.611314 -1.675859
  H 4.861483 0.398567 -0.482592
  H 5.052726 -2.588688 -3.257836
  H 5.342750 -1.119753 -4.152991
  H 2.930790 -0.472943 -3.950874
  H 2.596497 -1.997633 -3.093327
  H 6.587755 -0.532780 -0.978163
 23
 8.457840
  C 1.043618 0.004931 0.773614
  C 2.420710 0.186588 0.277416
  C 3.381368 0.684263 1.302316
  H 2.856760 0.991060 2.202253
  C 2.843941 -0.170135 -0.992558
  C 4.206176 -0.070150 -1.299392
  C 5.054527 -0.812838 -2.115576
  C 4.760074 -1.554093 -3.369730
  C 3.313661 -1.566023 -3.843987
  H 3.246016 -2.122158 -4.776763
  O 6.322696 -0.870419 -1.752440
  H 0.980964 0.046651 1.855226
  H 0.619083 -0.935802 0.421930
  H 0.399627 0.779647 0.350257
  H 3.945857 1.547778 0.953916
  H 4.082221 -0.100935 1.585938
  H 2.134443 -0.605505 -1.676570
  H 4.766861 0.536889 -0.590305
  H 5.099502 -2.586185 -3.217078
  H 5.413605 -1.136121 -4.141670
  H 2.950981 -0.557711 -4.022194
  H 2.672055 -2.054406 -3.119704
  H 6.509210 -0.428517 -0.910215
 23
 10.456007
  C 1.062817 -0.051623 0.827532
  C 2.407327 0.166259 0.267512
  C 3.381815 0.702286 1.261500
  H 2.867698 1.051627 2.152433
  C 2.803636 -0.164772 -1.011619
  C 4.152260 -0.005639 -1.352830
  C 5.020329 -0.799088 -2.100367
  C 4.752417 -1.597406 -3.322041
  C 3.329917 -1.576080 -3.861929
  H 3.288276 -2.158764 -4.778481
  O 6.269317 -0.866175 -1.687240
  H 1.068270 -0.079960 1.910170
  H 0.607472 -0.963978 0.439916
  H 0.406057 0.760509 0.504848
  H 3.961318 1.537270 0.872308
  H 4.074852 -0.078783 1.569653
  H 2.098499 -0.636586 -1.676831
  H 4.694308 0.668564 -0.694948
  H 5.070724 -2.627430 -3.133628
  H 5.442034 -1.215257 -4.083366
  H 3.009787 -0.562285 -4.088615
  H 2.636929 -2.025752 -3.157898
  H 6.444987 -0.372337 -0.861806
 23
 11.775207
  C 1.130553 -0.175472 0.857867
  C 2.434814 0.172968 0.264872
  C 3.375106 0.824662 1.220851
  H 2.830752 1.220190 2.075045
  C 2.814958 -0.145943 -1.021531
  C 4.139136 0.089950 -1.421771
  C 5.005611 -0.772708 -2.092910
  C 4.743937 -1.641832 -3.272498
  C 3.346098 -1.608914 -3.871442
  H 3.320976 -2.250112 -4.748764
  O 6.241134 -0.855922 -1.644892
  H 1.189731 -0.268064 1.937924
  H 0.718087 -1.089149 0.431327
  H 0.413912 0.616264 0.623047
  H 3.938087 1.640715 0.774700
  H 4.084364 0.090640 1.604428
  H 2.126690 -0.684993 -1.652080
  H 4.666657 0.831664 -0.831182
  H 5.016684 -2.668978 -3.007847
  H 5.475943 -1.338732 -4.029422
  H 3.072445 -0.603339 -4.177226
  H 2.607584 -1.984177 -3.173178
  H 6.429429 -0.297905 -0.865405
 23
 15.127688
  C 1.199285 -0.268238 0.877318
  C 2.467470 0.186467 0.267079
  C 3.394509 0.878938 1.200054
  H 2.834491 1.299151 2.033151
  C 2.786411 -0.080878 -1.038656
  C 4.076053 0.218967 -1.523221
  C 4.953070 -0.723651 -2.077444
  C 4.711278 -1.682471 -3.184473
  C 3.359377 -1.616112 -3.880184
  H 3.347149 -2.329818 -4.699483
  O 6.148654 -0.816182 -1.548279
  H 1.305724 -0.428262 1.945674
  H 0.816717 -1.171161 0.403952
  H 0.440931 0.506302 0.731871
  H 3.964967 1.674591 0.726767
  H 4.098441 0.161336 1.625830
  H 2.105378 -0.676793 -1.625948
  H 4.587377 1.027004 -1.004000
  H 4.908647 -2.696544 -2.823150
  H 5.505634 -1.483556 -3.914151
  H 3.175619 -0.625944 -4.288022
  H 2.549471 -1.876931 -3.209060
  H 6.325908 -0.183111 -0.829918
 23
 19.062672
  C 1.285031 -0.369104 0.888853
  C 2.504998 0.191162 0.260913
  C 3.402248 0.944178 1.174301
  H 2.814105 1.409522 1.963743
  C 2.785124 -0.044761 -1.058530
  C 4.035004 0.303986 -1.609127
  C 4.901068 -0.707003 -2.050458
  C 4.656175 -1.722695 -3.104148
  C 3.370356 -1.589062 -3.909562
  H 3.351636 -2.354601 -4.680795
  O 6.051512 -0.830203 -1.439554
  H 1.449436 -0.586138 1.941082
  H 0.931789 -1.263509 0.380000
  H 0.483642 0.371672 0.826965
  H 3.983664 1.713688 0.675032
  H 4.086334 0.251266 1.666304
  H 2.124059 -0.691754 -1.614443
  H 4.535160 1.149984 -1.142809
  H 4.744873 -2.724259 -2.671107
  H 5.513808 -1.631190 -3.782775
  H 3.312730 -0.617029 -4.393511
  H 2.487995 -1.723700 -3.293782
  H 6.240135 -0.140206 -0.772411
 23
 25.487299
  C 1.381958 -0.441214 0.911006
  C 2.551346 0.163804 0.219731
  C 3.471910 0.925711 1.097650
  H 2.890814 1.414685 1.877397
  C 2.744465 -0.022711 -1.118387
  C 3.972356 0.364896 -1.722718
  C 4.848191 -0.697486 -2.033675
  C 4.647928 -1.757775 -3.042402
  C 3.438327 -1.595309 -3.951279
  H 3.410646 -2.414742 -4.664212
  O 5.912281 -0.823344 -1.289779
  H 1.625718 -0.667022 1.946402
  H 1.039814 -1.339160 0.403640
  H 0.555271 0.270165 0.917287
  H 4.054053 1.678814 0.579201
  H 4.152971 0.244314 1.607833
  H 2.068278 -0.669456 -1.656603
  H 4.445626 1.260804 -1.338504
  H 4.648287 -2.736113 -2.552434
  H 5.560257 -1.735936 -3.651990
  H 3.491186 -0.657452 -4.497151
  H 2.510646 -1.613922 -3.393596
  H 6.073692 -0.087696 -0.665797
 23
 25.511985
  C 1.373951 -0.403576 0.884333
  C 2.565578 0.172401 0.211688
  C 3.505805 0.898455 1.103046
  H 2.948983 1.355939 1.919019
  C 2.763763 -0.023991 -1.125633
  C 4.000460 0.355949 -1.710776
  C 4.859486 -0.713425 -2.022332
  C 4.667403 -1.767745 -3.038116
  C 3.461781 -1.608935 -3.953573
  H 3.450994 -2.418157 -4.677396
  O 5.919179 -0.834215 -1.270985
  H 1.573578 -0.606872 1.932112
  H 1.026710 -1.311020 0.396445
  H 0.554795 0.317005 0.835630
  H 4.071924 1.674293 0.598046
  H 4.196408 0.190564 1.561924
  H 2.084309 -0.663722 -1.666775
  H 4.482060 1.234903 -1.293408
  H 4.668034 -2.747278 -2.550977
  H 5.583526 -1.748468 -3.640898
  H 3.507322 -0.667458 -4.494447
  H 2.527222 -1.643269 -3.405489
  H 6.055793 -0.109609 -0.629630
