19
 0
 C -0.61221074 2.35317991 -1.22056328
 C -1.41859260 1.06085461 -1.26185733
 C -1.07727174 0.18995191 -0.05389372
 C -2.93707656 1.22036498 -1.35447308
 C -3.58846649 2.57607189 -1.25576290
 O -3.65295870 0.22155424 -1.49102476
 H 0.46206154 2.13845425 -1.22541276
 H -0.82930546 2.93529522 -0.31836707
 H -0.82520121 2.97906285 -2.09347538
 H -1.12278161 0.52539392 -2.17358897
 H -1.38868917 0.66995252 0.88032231
 H 0.00000000 0.00000000 0.00000000
 H -1.58304280 -0.78012473 -0.11046369
 H -2.87605663 3.39726386 -1.20309290
 H -4.21150582 2.60544570 -0.35786612
 H -4.21060217 2.73004522 -2.14226142
 O 2.30000000 0.00000000 0.00000000
 H 2.86165789 -0.45890637 -0.64258244
 H 2.91189510 0.25197749 0.70784698
