 26
 0.000000
  C 0.971814 0.138952 0.397808
  C 2.447401 0.138846 0.396928
  C 3.233470 0.607805 1.563387
  C 2.455800 1.096687 2.780201
  H 3.134529 1.410901 3.561793
  C 3.068551 -0.324647 -0.756796
  C 4.444694 -0.410885 -0.972142
  C 5.119770 -0.863060 -2.099686
  C 4.622584 -1.385199 -3.401754
  C 3.133006 -1.501664 -3.692965
  H 2.982957 -1.900466 -4.687489
  O 6.442341 -0.859367 -2.090746
  H 0.538047 0.509236 1.319238
  H 0.601330 -0.872926 0.228610
  H 0.600964 0.752153 -0.424530
  H 3.890443 1.418288 1.228458
  H 3.890772 -0.208781 1.882396
  H 1.821305 0.303877 3.172706
  H 1.821043 1.940451 2.515030
  H 2.415617 -0.643763 -1.551082
  H 5.072269 -0.082236 -0.153732
  H 5.080380 -2.372952 -3.527181
  H 5.080775 -0.758103 -4.174942
  H 2.655319 -0.525477 -3.645435
  H 2.654942 -2.174318 -2.984194
  H 6.823995 -0.525711 -1.257144
 26
 5.325837
  C 0.969861 0.153517 0.431417
  C 2.440739 0.139691 0.399036
  C 3.251129 0.601926 1.550533
  C 2.492837 1.094565 2.775952
  H 3.198498 1.402118 3.542712
  C 3.032098 -0.329052 -0.767495
  C 4.367181 -0.433468 -1.027457
  C 5.112077 -0.866982 -2.110104
  C 4.660331 -1.393020 -3.421519
  C 3.174956 -1.513100 -3.718657
  H 3.047963 -1.914697 -4.720242
  O 6.418403 -0.835783 -2.035867
  H 0.564944 0.528096 1.363054
  H 0.586518 -0.853488 0.262369
  H 0.587383 0.764064 -0.387473
  H 3.909376 1.408024 1.206913
  H 3.908581 -0.218357 1.860328
  H 1.863974 0.310559 3.190852
  H 1.864937 1.948386 2.533042
  H 2.343379 -0.639784 -1.542337
  H 4.807671 -0.078071 -0.141066
  H 5.133072 -2.374420 -3.537664
  H 5.132068 -0.763251 -4.183715
  H 2.687438 -0.542865 -3.683565
  H 2.688515 -2.190925 -3.022870
  H 6.764534 -0.496496 -1.190594
 26
 14.887607
  C 0.949821 0.172917 0.478566
  C 2.424924 0.142085 0.402620
  C 3.263997 0.599020 1.542208
  C 2.533452 1.097118 2.784875
  H 3.266728 1.397058 3.534366
  C 2.968052 -0.337364 -0.791768
  C 4.306663 -0.456143 -1.087105
  C 5.110126 -0.870938 -2.121961
  C 4.706546 -1.404521 -3.449781
  C 3.223224 -1.534357 -3.769842
  H 3.113378 -1.938929 -4.776235
  O 6.438747 -0.814427 -1.982884
  H 0.574869 0.551288 1.420849
  H 0.549918 -0.829472 0.314214
  H 0.550344 0.783675 -0.333247
  H 3.920203 1.407328 1.193812
  H 3.920152 -0.226073 1.848743
  H 1.914487 0.319170 3.222165
  H 1.915008 1.962189 2.564037
  H 2.218372 -0.629696 -1.519898
  H 4.558141 -0.076017 -0.141609
  H 5.192907 -2.382505 -3.551550
  H 5.191544 -0.768262 -4.200347
  H 2.730282 -0.567753 -3.745610
  H 2.731518 -2.216025 -3.083001
  H 6.743501 -0.471078 -1.123021
 26
 28.225364
  C 0.957264 0.177916 0.483426
  C 2.428033 0.141061 0.399973
  C 3.272354 0.596367 1.541238
  C 2.542319 1.094186 2.781512
  H 3.271724 1.389851 3.525543
  C 2.960419 -0.339622 -0.797721
  C 4.300795 -0.469920 -1.120594
  C 5.131082 -0.877723 -2.140866
  C 4.730574 -1.411382 -3.466357
  C 3.246593 -1.530272 -3.751908
  H 3.110406 -1.931355 -4.748207
  O 6.431323 -0.812459 -1.988324
  H 0.589329 0.557646 1.428551
  H 0.552747 -0.820855 0.320938
  H 0.556664 0.789773 -0.324511
  H 3.927818 1.403365 1.197753
  H 3.924671 -0.226958 1.850354
  H 1.920637 0.315828 3.219636
  H 1.924745 1.962710 2.561120
  H 2.182215 -0.623442 -1.509122
  H 4.397110 -0.080595 -0.148592
  H 5.211582 -2.388522 -3.573814
  H 5.207148 -0.778262 -4.221215
  H 2.760905 -0.557731 -3.713197
  H 2.765322 -2.207309 -3.049646
  H 6.720002 -0.460149 -1.116055
 26
 42.996815
  C 0.952756 0.178166 0.483417
  C 2.427611 0.140268 0.397047
  C 3.275355 0.595522 1.539103
  C 2.544448 1.092915 2.779737
  H 3.273954 1.388266 3.523640
  C 2.958939 -0.339415 -0.799030
  C 4.318044 -0.479043 -1.144717
  C 5.153226 -0.879303 -2.145514
  C 4.742777 -1.415784 -3.476800
  C 3.250312 -1.522813 -3.732243
  H 3.087284 -1.923032 -4.725064
  O 6.462781 -0.810616 -1.984278
  H 0.586920 0.558185 1.430141
  H 0.546638 -0.820372 0.321618
  H 0.550407 0.790649 -0.323510
  H 3.931543 1.404255 1.198027
  H 3.928608 -0.227631 1.850351
  H 1.924009 0.315332 3.217436
  H 1.927988 1.960714 2.560206
  H 2.165142 -0.614109 -1.488002
  H 4.280659 -0.091200 -0.176656
  H 5.216768 -2.396535 -3.592149
  H 5.212406 -0.785966 -4.240267
  H 2.774918 -0.547898 -3.682576
  H 2.779312 -2.193609 -3.019664
  H 6.745990 -0.456503 -1.106945
 26
 55.583762
  C 0.950848 0.186169 0.501163
  C 2.425309 0.150377 0.415203
  C 3.271466 0.604047 1.557983
  C 2.540601 1.097390 2.799036
  H 3.271094 1.393002 3.546515
  C 2.960494 -0.326671 -0.780941
  C 4.324437 -0.477452 -1.150617
  C 5.156757 -0.883549 -2.161666
  C 4.755286 -1.422101 -3.488111
  C 3.263518 -1.536110 -3.760116
  H 3.111837 -1.941490 -4.756645
  O 6.462626 -0.818965 -2.007026
  H 0.585770 0.564723 1.450089
  H 0.544670 -0.814326 0.338690
  H 0.546456 0.801497 -0.305181
  H 3.927118 1.413082 1.217250
  H 3.926032 -0.219169 1.865377
  H 1.920519 0.318140 3.234052
  H 1.922652 1.964327 2.580942
  H 2.158496 -0.606520 -1.485197
  H 4.188226 -0.081108 -0.164127
  H 5.234011 -2.403527 -3.595305
  H 5.229940 -0.790363 -4.249309
  H 2.783998 -0.563363 -3.717639
  H 2.787795 -2.205214 -3.050190
  H 6.745514 -0.472066 -1.141683
 26
 67.100219
  C 0.955137 0.198969 0.490745
  C 2.427352 0.161617 0.417122
  C 3.265336 0.602394 1.569527
  C 2.524639 1.085123 2.813366
  H 3.250213 1.372053 3.569877
  C 2.974903 -0.304964 -0.779098
  C 4.359011 -0.467918 -1.152491
  C 5.169528 -0.879193 -2.172831
  C 4.751595 -1.430637 -3.490261
  C 3.257448 -1.550288 -3.741723
  H 3.094265 -1.964747 -4.732001
  O 6.481372 -0.811092 -2.039673
  H 0.586099 0.566525 1.434545
  H 0.549614 -0.795214 0.316567
  H 0.559538 0.821111 -0.308840
  H 3.928592 1.415936 1.239731
  H 3.920177 -0.228409 1.872384
  H 1.900401 0.303132 3.235661
  H 1.909933 1.954787 2.600250
  H 2.181345 -0.572164 -1.484593
  H 4.132626 -0.077767 -0.179054
  H 5.229747 -2.408435 -3.595273
  H 5.212571 -0.804790 -4.259325
  H 2.775482 -0.576038 -3.702449
  H 2.791516 -2.216051 -3.018416
  H 6.776701 -0.454111 -1.179570
 26
 76.129919
  C 0.964264 0.254969 0.450769
  C 2.434116 0.202438 0.408045
  C 3.262361 0.589446 1.596290
  C 2.510404 1.026854 2.855776
  H 3.228270 1.269840 3.632548
  C 3.002787 -0.221592 -0.790411
  C 4.392667 -0.430393 -1.150676
  C 5.170710 -0.845715 -2.184947
  C 4.733410 -1.462900 -3.478462
  C 3.245477 -1.626305 -3.701860
  H 3.079997 -2.078234 -4.674346
  O 6.489211 -0.743971 -2.098187
  H 0.579216 0.589654 1.408659
  H 0.546443 -0.734212 0.224700
  H 0.591160 0.921827 -0.333061
  H 3.933979 1.397365 1.318456
  H 3.896897 -0.257925 1.860127
  H 1.868301 0.233658 3.236909
  H 1.908517 1.916963 2.674907
  H 2.218464 -0.439875 -1.541977
  H 4.101322 -0.052827 -0.196113
  H 5.235284 -2.437224 -3.569611
  H 5.164746 -0.840723 -4.274540
  H 2.746428 -0.673051 -3.691786
  H 2.808759 -2.273307 -2.956307
  H 6.804880 -0.342684 -1.261238
 26
 81.221925
  C 0.954384 0.324447 0.412354
  C 2.439175 0.245040 0.392865
  C 3.249879 0.561968 1.607249
  C 2.480618 0.939796 2.868872
  H 3.186408 1.133216 3.670398
  C 3.035228 -0.127187 -0.796241
  C 4.428499 -0.395852 -1.180916
  C 5.193657 -0.816647 -2.202434
  C 4.728821 -1.496173 -3.453121
  C 3.229086 -1.701373 -3.617352
  H 3.042670 -2.196121 -4.571726
  O 6.516833 -0.679945 -2.190182
  H 0.563871 0.619794 1.374701
  H 0.521003 -0.639673 0.139499
  H 0.606223 1.037131 -0.336223
  H 3.943695 1.384296 1.377758
  H 3.872432 -0.316807 1.839832
  H 1.826733 0.140309 3.191667
  H 1.896654 1.839787 2.723627
  H 2.290389 -0.291875 -1.583438
  H 4.100919 -0.005448 -0.204891
  H 5.254064 -2.450607 -3.521365
  H 5.111677 -0.886576 -4.273626
  H 2.699009 -0.743958 -3.630014
  H 2.827390 -2.338547 -2.824646
  H 6.856202 -0.236059 -1.397944
 26
 84.347320
  C 0.960732 0.403321 0.385136
  C 2.441303 0.291311 0.391864
  C 3.235312 0.530162 1.637169
  C 2.448355 0.851508 2.891035
  H 3.143211 0.991189 3.722052
  C 3.058338 -0.031066 -0.797206
  C 4.442415 -0.359412 -1.229103
  C 5.199140 -0.786673 -2.231876
  C 4.713624 -1.539484 -3.443670
  C 3.230024 -1.787800 -3.547286
  H 3.029476 -2.330199 -4.461831
  O 6.526320 -0.611157 -2.274123
  H 0.560372 0.656582 1.356381
  H 0.514213 -0.529879 0.058483
  H 0.644847 1.160630 -0.323601
  H 3.940166 1.350047 1.467857
  H 3.835392 -0.368401 1.835459
  H 1.770755 0.040096 3.156036
  H 1.878502 1.773418 2.779756
  H 2.338515 -0.135594 -1.620422
  H 4.104570 0.048640 -0.235983
  H 5.262934 -2.481752 -3.477409
  H 5.053039 -0.954188 -4.301946
  H 2.683575 -0.860203 -3.593811
  H 2.874655 -2.384823 -2.722801
  H 6.878204 -0.116202 -1.519755
 26
 87.114570
  C 0.962453 0.462834 0.363416
  C 2.439005 0.324977 0.390942
  C 3.226548 0.499891 1.663140
  C 2.425278 0.780695 2.931349
  H 3.109399 0.873749 3.771829
  C 3.067571 0.044603 -0.798485
  C 4.447669 -0.314963 -1.273793
  C 5.204600 -0.755828 -2.262691
  C 4.715932 -1.579491 -3.438143
  C 3.227571 -1.860682 -3.500933
  H 3.018191 -2.462101 -4.393685
  O 6.525925 -0.567261 -2.325019
  H 0.552162 0.682756 1.338434
  H 0.502062 -0.457031 -0.010336
  H 0.668725 1.261980 -0.322342
  H 3.941479 1.315404 1.536958
  H 3.812868 -0.414824 1.828603
  H 1.736636 -0.026488 3.154464
  H 1.871926 1.710494 2.856535
  H 2.367670 -0.013797 -1.641316
  H 4.097090 0.117126 -0.271767
  H 5.284209 -2.514403 -3.430814
  H 5.030191 -1.028770 -4.330394
  H 2.657052 -0.936854 -3.588285
  H 2.893919 -2.424426 -2.628982
  H 6.881505 -0.036356 -1.590497
 26
 89.507767
  C 0.966548 0.527161 0.348710
  C 2.440590 0.357243 0.393117
  C 3.212525 0.457461 1.677692
  C 2.397800 0.693082 2.941780
  H 3.069471 0.734583 3.796449
  C 3.083131 0.117422 -0.800704
  C 4.451392 -0.274044 -1.315861
  C 5.205278 -0.728604 -2.295768
  C 4.710670 -1.620539 -3.419081
  C 3.229565 -1.926685 -3.423836
  H 3.005695 -2.581022 -4.270349
  O 6.523978 -0.519977 -2.385453
  H 0.547619 0.710724 1.323905
  H 0.494301 -0.363186 -0.071607
  H 0.699768 1.360313 -0.301766
  H 3.944822 1.266430 1.597960
  H 3.782404 -0.474923 1.807491
  H 1.691013 -0.111386 3.117017
  H 1.861013 1.635607 2.902668
  H 2.403251 0.109614 -1.662542
  H 4.094569 0.187822 -0.299285
  H 5.296679 -2.543871 -3.374441
  H 4.992203 -1.114552 -4.346871
  H 2.642463 -1.021229 -3.548792
  H 2.929809 -2.440039 -2.511390
  H 6.879777 0.045702 -1.681649
 26
 91.036822
  C 0.968876 0.591160 0.339741
  C 2.437312 0.390179 0.390483
  C 3.200354 0.412750 1.682955
  C 2.379028 0.598288 2.955035
  H 3.042751 0.585200 3.811885
  C 3.087432 0.190543 -0.811541
  C 4.442339 -0.234426 -1.356241
  C 5.200311 -0.706477 -2.320391
  C 4.711755 -1.665426 -3.386936
  C 3.230589 -1.994608 -3.349968
  H 3.004903 -2.702977 -4.146441
  O 6.517200 -0.483029 -2.433670
  H 0.542253 0.739235 1.320092
  H 0.483280 -0.271318 -0.125981
  H 0.724614 1.459423 -0.276237
  H 3.946788 1.213047 1.648570
  H 3.753324 -0.530892 1.768657
  H 1.658443 -0.202328 3.084665
  H 1.858385 1.550826 2.960254
  H 2.423847 0.237070 -1.680377
  H 4.079659 0.262971 -0.326369
  H 5.315634 -2.576693 -3.295368
  H 4.973451 -1.206821 -4.346366
  H 2.627519 -1.108256 -3.522488
  H 2.951225 -2.451878 -2.400777
  H 6.872238 0.116050 -1.756124
 26
 90.396834
  C 0.973729 0.684044 0.334958
  C 2.433630 0.435768 0.375872
  C 3.191257 0.341453 1.664425
  C 2.368956 0.457673 2.945446
  H 3.028582 0.363762 3.801923
  C 3.083383 0.296120 -0.843984
  C 4.407819 -0.169373 -1.409387
  C 5.180618 -0.669313 -2.342426
  C 4.713409 -1.724373 -3.324090
  C 3.241958 -2.089372 -3.236227
  H 3.024637 -2.866072 -3.964642
  O 6.496164 -0.432155 -2.468141
  H 0.544982 0.779573 1.326128
  H 0.466379 -0.128796 -0.188852
  H 0.757260 1.597770 -0.222717
  H 3.961180 1.120565 1.691251
  H 3.717519 -0.619995 1.682325
  H 1.625405 -0.330170 3.013639
  H 1.874937 1.421877 3.017226
  H 2.433200 0.426552 -1.710216
  H 4.052166 0.385896 -0.374582
  H 5.341190 -2.603504 -3.166208
  H 4.949843 -1.337906 -4.317171
  H 2.612667 -1.235726 -3.468094
  H 2.990363 -2.470228 -2.249736
  H 6.839314 0.212170 -1.828285
