 20
 0.000000
  H 1.375272 0.140283 0.400410
  C 2.445261 0.138532 0.395784
  C 3.234973 0.607589 1.562934
  H 2.692888 0.951487 2.418959
  C 3.056527 -0.326240 -0.761266
  C 4.434557 -0.412807 -0.977341
  C 5.116634 -0.862171 -2.097644
  C 4.626711 -1.386353 -3.404443
  C 3.136043 -1.505154 -3.701248
  H 2.979055 -1.899161 -4.683599
  O 6.441363 -0.854110 -2.077903
  H 3.890881 1.419250 1.227711
  H 3.891049 -0.210235 1.882449
  H 2.395882 -0.642369 -1.548407
  H 5.050449 -0.080233 -0.149165
  H 5.083529 -2.374996 -3.529298
  H 5.083826 -0.758265 -4.177923
  H 2.660333 -0.524837 -3.647836
  H 2.660040 -2.176678 -2.985238
  H 6.799446 -0.516763 -1.236311
 20
 0.000000
  H 1.442911 0.102471 0.306180
  C 2.512335 0.115711 0.338902
  C 3.254186 0.595494 1.532798
  H 2.677788 0.931550 2.369305
  C 3.170066 -0.340163 -0.796006
  C 4.456059 -0.413643 -0.979440
  C 5.090105 -0.851007 -2.069828
  C 4.602336 -1.375469 -3.377321
  C 3.112159 -1.495122 -3.676241
  H 2.956790 -1.889218 -4.658813
  O 6.317051 -0.833248 -2.025887
  H 3.909963 1.416348 1.220479
  H 3.910108 -0.213139 1.875210
  H 2.571791 -0.665139 -1.605214
  H 5.073993 -0.081596 -0.152575
  H 5.059895 -2.363851 -3.501526
  H 5.060189 -0.747120 -4.150152
  H 2.635814 -0.515076 -3.623504
  H 2.635524 -2.166917 -2.960906
  H 6.605660 -0.484096 -1.154837
 20
 0.000000
  H 1.512962 0.065081 0.213001
  C 2.580229 0.093712 0.284067
  C 3.271786 0.583814 1.503699
  H 2.660962 0.911314 2.318908
  C 3.284756 -0.352343 -0.826404
  C 4.477041 -0.413884 -0.980059
  C 5.065870 -0.840617 -2.043939
  C 4.579438 -1.365252 -3.351859
  C 3.089566 -1.485433 -3.652090
  H 2.935202 -1.879585 -4.634799
  O 6.193100 -0.814933 -1.980222
  H 3.926460 1.414111 1.214903
  H 3.926581 -0.215380 1.869627
  H 2.749144 -0.686469 -1.658435
  H 5.097572 -0.082512 -0.154870
  H 5.037457 -2.353471 -3.475662
  H 5.037748 -0.736741 -4.124288
  H 2.612827 -0.505557 -3.599774
  H 2.612541 -2.157398 -2.937175
  H 6.406679 -0.453205 -1.077783
 20
 0.000000
  H 1.585152 0.028509 0.121858
  C 2.648541 0.072903 0.232196
  C 3.287368 0.572841 1.476360
  H 2.642139 0.891044 2.268426
  C 3.400034 -0.362375 -0.851450
  C 4.497700 -0.413241 -0.978472
  C 5.044491 -0.831340 -2.020827
  C 4.558265 -1.356004 -3.328813
  C 3.068441 -1.476269 -3.629245
  H 2.914231 -1.870430 -4.611974
  O 6.070673 -0.799603 -1.941993
  H 3.939891 1.412810 1.211664
  H 3.939988 -0.216684 1.866379
  H 2.927952 -0.706157 -1.707564
  H 5.121574 -0.082742 -0.155455
  H 5.016356 -2.344198 -3.452553
  H 5.016644 -0.727467 -4.101180
  H 2.591640 -0.496420 -3.576994
  H 2.591356 -2.148260 -2.914394
  H 6.201522 -0.424661 -1.006576
 20
 0.000000
  H 1.658968 -0.006701 0.034104
  C 2.716644 0.053774 0.184511
  C 3.300382 0.562975 1.451781
  H 2.620948 0.871131 2.218832
  C 3.515041 -0.369748 -0.869868
  C 4.518325 -0.411311 -0.973679
  C 5.026664 -0.823635 -2.001631
  C 4.539135 -1.348133 -3.309198
  C 3.049012 -1.467887 -3.608351
  H 2.893823 -1.861996 -4.590946
  O 5.951316 -0.787758 -1.912452
  H 3.949633 1.412817 1.211683
  H 3.949705 -0.216681 1.866389
  H 3.108108 -0.723878 -1.751788
  H 5.146531 -0.081955 -0.153504
  H 4.996781 -2.336484 -3.433331
  H 4.997066 -0.719754 -4.081959
  H 2.572592 -0.487874 -3.555691
  H 2.572312 -2.139714 -2.893089
  H 5.989163 -0.399339 -0.943396
 20
 0.000000
  H 1.733517 -0.039772 -0.048322
  C 2.783559 0.037005 0.142708
  C 3.310096 0.554789 1.431390
  H 2.596923 0.852170 2.171609
  C 3.628446 -0.373800 -0.880010
  C 4.539316 -0.407545 -0.964305
  C 5.013240 -0.818123 -1.987901
  C 4.522462 -1.342203 -3.294421
  C 3.031601 -1.460680 -3.590381
  H 2.873970 -1.854656 -4.572642
  O 5.837097 -0.779994 -1.893084
  H 3.954900 1.414643 1.216239
  H 3.954945 -0.214859 1.870936
  H 3.289167 -0.739132 -1.789863
  H 5.173161 -0.079694 -0.147875
  H 4.978994 -2.330946 -3.419531
  H 4.979276 -0.714217 -4.068162
  H 2.556135 -0.480259 -3.536703
  H 2.555857 -2.132097 -2.874099
  H 5.768695 -0.378532 -0.891467
 20
 0.000000
  H 1.807241 -0.069523 -0.122480
  C 2.847729 0.023591 0.109263
  C 3.315548 0.549141 1.417322
  H 2.569535 0.835114 2.129132
  C 3.738112 -0.373649 -0.879673
  C 4.561187 -0.401182 -0.948457
  C 5.005249 -0.815678 -1.981817
  C 4.508825 -1.339023 -3.286496
  C 3.016695 -1.455273 -3.576899
  H 2.854817 -1.849012 -4.558563
  O 5.730845 -0.777053 -1.885733
  H 3.954732 1.419031 1.227182
  H 3.954747 -0.210475 1.881868
  H 3.469847 -0.751209 -1.820019
  H 5.202393 -0.075323 -0.136991
  H 4.963410 -2.328447 -3.413302
  H 4.963690 -0.711720 -4.061937
  H 2.542897 -0.474143 -3.521454
  H 2.542621 -2.125980 -2.858846
  H 5.539653 -0.364089 -0.855402
 20
 0.000000
  H 1.875662 -0.093486 -0.182213
  C 2.905195 0.015237 0.088428
  C 3.315572 0.547404 1.413001
  H 2.539115 0.821896 2.096209
  C 3.837993 -0.368252 -0.866258
  C 4.583961 -0.391452 -0.924215
  C 5.003944 -0.817521 -1.986416
  C 4.499329 -1.339782 -3.288385
  C 3.005400 -1.452791 -3.570705
  H 2.837356 -1.846174 -4.551476
  O 5.638836 -0.779820 -1.892611
  H 3.948266 1.426887 1.246766
  H 3.948253 -0.202623 1.901442
  H 3.642622 -0.759146 -1.839843
  H 5.234539 -0.068184 -0.119198
  H 4.951071 -2.330190 -3.417642
  H 4.951350 -0.713465 -4.066282
  H 2.534040 -0.470635 -3.512704
  H 2.533765 -2.122470 -2.850092
  H 5.308360 -0.358519 -0.841461
 20
 0.000000
  H 1.926340 -0.107181 -0.216355
  C 2.945966 0.013815 0.084874
  C 3.310229 0.550619 1.421016
  H 2.510493 0.815668 2.080703
  C 3.911369 -0.358302 -0.841486
  C 4.604510 -0.379496 -0.894418
  C 5.009215 -0.823971 -2.002495
  C 4.495614 -1.345020 -3.301433
  C 2.999766 -1.454459 -3.574856
  H 2.824948 -1.847435 -4.554605
  O 5.575423 -0.787733 -1.912316
  H 3.937026 1.437646 1.273584
  H 3.936990 -0.191866 1.928253
  H 3.779134 -0.762751 -1.848852
  H 5.265227 -0.059094 -0.096543
  H 4.944213 -2.336503 -3.433366
  H 4.944493 -0.719780 -4.082012
  H 2.531107 -0.471180 -3.514060
  H 2.530829 -2.123012 -2.851441
  H 5.109078 -0.362354 -0.850982
 20
 0.000000
  H 1.959633 -0.111403 -0.226887
  C 2.971181 0.018665 0.096952
  C 3.300804 0.558567 1.440822
  H 2.484244 0.816396 2.082519
  C 3.960254 -0.344722 -0.807654
  C 4.622787 -0.365788 -0.860249
  C 5.019221 -0.834394 -2.028475
  C 4.496924 -1.354247 -3.324421
  C 2.999272 -1.460219 -3.589204
  H 2.817892 -1.852785 -4.567924
  O 5.536376 -0.799454 -1.941517
  H 3.922780 1.451172 1.307293
  H 3.922727 -0.178342 1.961958
  H 3.881283 -0.764215 -1.852504
  H 5.294177 -0.048480 -0.070084
  H 4.942456 -2.346766 -3.458933
  H 4.942737 -0.730046 -4.107585
  H 2.533252 -0.475857 -3.525712
  H 2.532972 -2.127687 -2.863087
  H 4.937131 -0.373057 -0.877637
 20
 0.000000
  H 1.975573 -0.106529 -0.214745
  C 2.981522 0.029434 0.123785
  C 3.288379 0.571196 1.472291
  H 2.461068 0.824222 2.102018
  C 3.985771 -0.328128 -0.766307
  C 4.638279 -0.350817 -0.822933
  C 5.032711 -0.848288 -2.063103
  C 4.503014 -1.367105 -3.356459
  C 3.003869 -1.470117 -3.613863
  H 2.816897 -1.862322 -4.591676
  O 5.518592 -0.814061 -1.977911
  H 3.907009 1.467426 1.347796
  H 3.906944 -0.162088 2.002460
  H 3.949627 -0.765985 -1.856901
  H 5.320684 -0.036786 -0.040936
  H 4.945915 -2.360503 -3.493155
  H 4.946198 -0.743785 -4.141813
  H 2.540113 -0.484836 -3.548087
  H 2.539832 -2.136663 -2.885455
  H 4.787081 -0.388176 -0.915311
 20
 0.000000
  H 1.974091 -0.092865 -0.180696
  C 2.977437 0.045742 0.164423
  C 3.274016 0.588300 1.514907
  H 2.441930 0.839143 2.139193
  C 3.988439 -0.309169 -0.719060
  C 4.649870 -0.335292 -0.784237
  C 5.048635 -0.864993 -2.104739
  C 4.513880 -1.383095 -3.396299
  C 3.013739 -1.484079 -3.648649
  H 2.822942 -1.876033 -4.625824
  O 5.519562 -0.830634 -2.019214
  H 3.891088 1.486156 1.394464
  H 3.891018 -0.143358 2.049129
  H 3.983390 -0.770647 -1.868490
  H 5.343308 -0.024631 -0.010643
  H 4.954975 -2.377091 -3.534481
  H 4.955258 -0.760376 -4.183146
  H 2.551540 -0.498172 -3.581315
  H 2.551258 -2.149996 -2.918677
  H 4.653666 -0.405294 -0.957969
 20
 0.000000
  H 1.956640 -0.071866 -0.128364
  C 2.960425 0.066301 0.215654
  C 3.258724 0.608731 1.565811
  H 2.427433 0.859940 2.191009
  C 3.970302 -0.289057 -0.668937
  C 4.655967 -0.320349 -0.746993
  C 5.065433 -0.883154 -2.150002
  C 4.528998 -1.401020 -3.440960
  C 3.028529 -1.501330 -3.691627
  H 2.836460 -1.893202 -4.668586
  O 5.535226 -0.847726 -2.061815
  H 3.876058 1.506315 1.444689
  H 3.875990 -0.123198 2.099357
  H 3.983263 -0.780061 -1.891906
  H 5.359783 -0.012941 0.018487
  H 4.969490 -2.395215 -3.579633
  H 4.969772 -0.778502 -4.228304
  H 2.566849 -0.515215 -3.623779
  H 2.566567 -2.167037 -2.961134
  H 4.532461 -0.422171 -1.000027
 20
 0.000000
  H 1.927207 -0.046534 -0.065232
  C 2.933682 0.088893 0.271952
  C 3.242632 0.630498 1.620044
  H 2.416299 0.883969 2.250877
  C 3.936548 -0.269212 -0.619481
  C 4.655494 -0.306963 -0.713629
  C 5.081170 -0.901109 -2.194754
  C 4.546931 -1.419295 -3.486493
  C 3.046890 -1.520490 -3.739357
  H 2.856483 -1.912478 -4.716594
  O 5.558911 -0.863782 -2.101836
  H 3.861574 1.526396 1.494717
  H 3.861513 -0.103115 2.149390
  H 3.955312 -0.794135 -1.926928
  H 5.368336 -0.002450 0.044623
  H 4.988211 -2.413231 -3.624516
  H 4.988492 -0.796521 -4.273194
  H 2.584531 -0.534646 -3.672190
  H 2.584251 -2.186466 -3.009538
  H 4.418044 -0.438007 -1.039487
