 29
 0.000000
  H 1.460799 0.156299 0.443219
  C 2.540083 0.147184 0.419759
  C 3.294083 0.617177 1.587574
  C 2.443961 1.089436 2.762478
  C 3.319853 1.556041 3.921409
  C 3.118927 -0.320485 -0.744398
  C 4.492370 -0.417590 -0.987517
  C 5.142421 -0.876973 -2.133567
  C 4.607075 -1.392756 -3.420294
  C 3.110231 -1.497822 -3.683799
  C 2.866635 -2.058583 -5.082893
  O 6.457178 -0.883522 -2.150683
  H 3.954769 1.436118 1.277896
  H 3.955474 -0.187591 1.931012
  H 1.801712 0.277711 3.108743
  H 1.801005 1.914381 2.450392
  H 3.954934 0.749137 4.279922
  H 2.701559 1.889478 4.751055
  H 3.954119 2.386937 3.621041
  H 2.440731 -0.632329 -1.520015
  H 5.148397 -0.095721 -0.186382
  H 5.055702 -2.383702 -3.557527
  H 5.056361 -0.771472 -4.204052
  H 2.643040 -0.514329 -3.623502
  H 2.642347 -2.166991 -2.960968
  H 3.300160 -1.413595 -5.843431
  H 1.799678 -2.135301 -5.275408
  H 3.299507 -3.050622 -5.187194
  H 6.873741 -0.555234 -1.330475
 29
 -0.137102
  H 1.529485 0.650456 0.334687
  C 2.587876 0.433215 0.302350
  C 3.324660 0.625367 1.558696
  C 2.451340 1.073920 2.727087
  C 3.275802 1.260841 3.996406
  C 3.123799 0.001635 -0.890567
  C 4.493355 -0.195316 -1.091905
  C 5.153334 -0.714160 -2.207016
  C 4.608094 -1.381275 -3.416070
  C 3.108429 -1.523803 -3.638576
  C 2.848908 -2.315448 -4.918662
  O 6.465701 -0.689222 -2.236857
  H 4.120456 1.366129 1.405855
  H 3.843571 -0.301299 1.831453
  H 1.673502 0.330484 2.912054
  H 1.957166 2.015188 2.478355
  H 3.762995 0.332148 4.283597
  H 2.638931 1.573527 4.819816
  H 4.039672 2.022397 3.855892
  H 2.440973 -0.158423 -1.706332
  H 5.139285 0.130065 -0.283761
  H 5.060781 -2.381419 -3.428411
  H 5.053205 -0.873981 -4.280049
  H 2.644820 -0.542236 -3.745376
  H 2.648832 -2.053889 -2.803644
  H 3.280865 -1.814037 -5.781746
  H 1.779971 -2.417732 -5.089150
  H 3.275891 -3.312914 -4.853846
  H 6.893833 -0.272048 -1.465412
 29
 1.455292
  H 1.624393 1.157498 0.204733
  C 2.626480 0.760767 0.127434
  C 3.296911 0.575679 1.426903
  C 2.459165 1.034144 2.619838
  C 3.203003 0.821749 3.933420
  C 3.181520 0.430706 -1.083817
  C 4.537466 0.114702 -1.221969
  C 5.200866 -0.465380 -2.303085
  C 4.633030 -1.336859 -3.361983
  C 3.128241 -1.558156 -3.446083
  C 2.811972 -2.570442 -4.542861
  O 6.503392 -0.368910 -2.396557
  H 4.249126 1.119745 1.443524
  H 3.559158 -0.479915 1.561668
  H 1.520492 0.476709 2.647487
  H 2.214232 2.092609 2.512690
  H 3.451363 -0.227605 4.073283
  H 2.588182 1.135826 4.772669
  H 4.123184 1.400462 3.957758
  H 2.557156 0.483302 -1.960431
  H 5.156692 0.398794 -0.372476
  H 5.128893 -2.306984 -3.234341
  H 5.000293 -0.964400 -4.325065
  H 2.619140 -0.626022 -3.685214
  H 2.746568 -1.935382 -2.497032
  H 3.165199 -2.219829 -5.509641
  H 1.739535 -2.728374 -4.613503
  H 3.280763 -3.529425 -4.335643
  H 6.932557 0.186226 -1.718370
 29
 3.826671
  H 1.633347 1.179217 0.231183
  C 2.611771 0.741876 0.099254
  C 3.205125 0.375651 1.402211
  C 2.508639 1.039787 2.593663
  C 3.168744 0.644576 3.909930
  C 3.205818 0.510122 -1.113202
  C 4.541376 0.101500 -1.203116
  C 5.219085 -0.464000 -2.286941
  C 4.643148 -1.381654 -3.301631
  C 3.136582 -1.612323 -3.323277
  C 2.787727 -2.702138 -4.334218
  O 6.512693 -0.316886 -2.412660
  H 4.272124 0.608127 1.450225
  H 3.134850 -0.713232 1.525094
  H 1.457778 0.748578 2.621072
  H 2.550044 2.126193 2.480985
  H 3.171196 -0.435713 4.033654
  H 2.630016 1.077031 4.748707
  H 4.195766 0.999357 3.952979
  H 2.648216 0.708929 -2.013578
  H 5.118956 0.253079 -0.290435
  H 5.151582 -2.341018 -3.142546
  H 4.979746 -1.046602 -4.288697
  H 2.618587 -0.699313 -3.608815
  H 2.784830 -1.916480 -2.336446
  H 3.113380 -2.423702 -5.334767
  H 1.714427 -2.861790 -4.362520
  H 3.261015 -3.643730 -4.071531
  H 6.933714 0.280182 -1.763657
 29
 10.631795
  H 1.654318 1.407901 0.154389
  C 2.638313 1.015086 -0.060062
  C 3.192082 0.429733 1.183771
  C 2.526663 0.984538 2.452189
  C 3.153546 0.388846 3.707763
  C 3.233529 0.891320 -1.275978
  C 4.538105 0.408685 -1.346933
  C 5.246126 -0.205812 -2.380156
  C 4.692790 -1.275247 -3.247299
  C 3.194760 -1.550210 -3.153796
  C 2.818270 -2.733803 -4.038655
  O 6.511304 0.050419 -2.592169
  H 4.273070 0.565342 1.307306
  H 3.031876 -0.656536 1.163559
  H 1.463314 0.751513 2.443891
  H 2.635458 2.070015 2.472529
  H 3.059915 -0.695503 3.709779
  H 2.655424 0.769486 4.597145
  H 4.207938 0.645262 3.779282
  H 2.707403 1.191420 -2.170699
  H 5.017341 0.446764 -0.351075
  H 5.241452 -2.181423 -2.964377
  H 4.979771 -1.072860 -4.281886
  H 2.633913 -0.675519 -3.486378
  H 2.910258 -1.763113 -2.123609
  H 3.073308 -2.538666 -5.076231
  H 1.749290 -2.922321 -3.985076
  H 3.337045 -3.635613 -3.724257
  H 6.898780 0.763323 -2.038707
 29
 26.711288
  H 1.810176 1.865117 0.249681
  C 2.697994 1.363599 -0.112519
  C 3.195808 0.486612 0.960124
  C 2.611724 0.897865 2.328074
  C 3.078626 -0.030226 3.442431
  C 3.203484 1.276387 -1.371144
  C 4.425974 0.626244 -1.499747
  C 5.210642 -0.051227 -2.439377
  C 4.736357 -1.284366 -3.123257
  C 3.255492 -1.610738 -2.918057
  C 2.877376 -2.897898 -3.643545
  O 6.454848 0.245372 -2.656405
  H 4.268588 0.403433 1.176532
  H 2.831293 -0.523617 0.787165
  H 1.520380 0.896274 2.284254
  H 2.917761 1.920931 2.560810
  H 2.870610 -1.071025 3.199666
  H 2.557962 0.205941 4.370734
  H 4.145361 0.081946 3.627762
  H 2.771444 1.836069 -2.201662
  H 4.812718 0.575317 -0.441910
  H 5.382543 -2.115186 -2.846318
  H 4.908507 -1.113178 -4.197282
  H 2.635387 -0.787614 -3.273262
  H 3.051846 -1.734610 -1.851407
  H 3.073779 -2.812517 -4.711676
  H 1.816589 -3.115969 -3.508265
  H 3.447319 -3.741247 -3.260290
  H 6.759296 1.082606 -2.252894
 29
 60.892920
  H 1.767641 2.069505 0.181224
  C 2.579525 1.439907 -0.141926
  C 3.129814 0.497067 0.875340
  C 2.662598 0.832489 2.311773
  C 3.235457 -0.129140 3.346713
  C 3.100519 1.458500 -1.398746
  C 4.253133 0.734118 -1.646498
  C 5.119306 0.003616 -2.385820
  C 4.729626 -1.291953 -3.033428
  C 3.232396 -1.606268 -2.978688
  C 2.946701 -2.965460 -3.608627
  O 6.419830 0.270608 -2.514709
  H 4.256856 0.449095 1.096184
  H 2.882719 -0.548227 0.623715
  H 1.575587 0.766263 2.333203
  H 2.930703 1.862200 2.561875
  H 2.957989 -1.154605 3.120507
  H 2.845397 0.108620 4.332772
  H 4.319337 -0.064407 3.401543
  H 2.646504 2.062856 -2.184190
  H 4.544765 0.658119 -0.107230
  H 5.299747 -2.089622 -2.542804
  H 5.071781 -1.248593 -4.066332
  H 2.675317 -0.838408 -3.514074
  H 2.890898 -1.616522 -1.939136
  H 3.265248 -2.985578 -4.653225
  H 1.886328 -3.187223 -3.573785
  H 3.473973 -3.752086 -3.079554
  H 6.680082 1.141373 -2.133586
 29
 74.831094
  H 1.778288 2.062422 0.217926
  C 2.591167 1.437995 -0.108358
  C 3.152654 0.450765 0.887379
  C 2.745547 0.862260 2.322323
  C 3.230951 -0.132796 3.369055
  C 3.080145 1.487968 -1.396175
  C 4.170707 0.765845 -1.768125
  C 5.047972 0.072899 -2.451788
  C 4.733311 -1.268905 -3.068146
  C 3.257020 -1.647134 -3.019851
  C 3.025848 -3.019587 -3.639490
  O 6.364154 0.388731 -2.575087
  H 4.286008 0.233725 1.201572
  H 2.760847 -0.548609 0.662589
  H 1.659554 0.915310 2.355169
  H 3.132281 1.853460 2.548701
  H 2.869267 -1.134700 3.154596
  H 2.856977 0.146795 4.349071
  H 4.316495 -0.157290 3.431975
  H 2.614764 2.151505 -2.114815
  H 4.293908 0.583097 0.209970
  H 5.337939 -2.024987 -2.561989
  H 5.078746 -1.228358 -4.103863
  H 2.671836 -0.902217 -3.561194
  H 2.909958 -1.658747 -1.986677
  H 3.350877 -3.033928 -4.677232
  H 1.970154 -3.278179 -3.612725
  H 3.579321 -3.785134 -3.100522
  H 6.554018 1.291491 -2.271652
 29
 76.083929
  H 1.951687 2.162607 0.246059
  C 2.729832 1.502332 -0.087622
  C 3.252217 0.471972 0.928856
  C 2.728007 0.853773 2.332173
  C 3.092435 -0.192319 3.381504
  C 3.151999 1.526200 -1.402651
  C 4.186225 0.798534 -1.882832
  C 5.044701 0.095903 -2.565149
  C 4.731093 -1.271902 -3.127665
  C 3.263629 -1.668852 -3.014491
  C 3.032641 -3.070299 -3.566757
  O 6.358352 0.430462 -2.756706
  H 4.344019 0.168834 1.326273
  H 2.867165 -0.508016 0.618813
  H 1.643515 0.941857 2.279152
  H 3.125180 1.824159 2.627909
  H 2.719354 -1.174616 3.102091
  H 2.645302 0.066162 4.337297
  H 4.168170 -0.255639 3.533928
  H 2.642521 2.199025 -2.082642
  H 4.297290 0.785793 0.422945
  H 5.364946 -2.001295 -2.616614
  H 5.039425 -1.261717 -4.175899
  H 2.650219 -0.955469 -3.567466
  H 2.951136 -1.639615 -1.970192
  H 3.325468 -3.125128 -4.613139
  H 1.982240 -3.341284 -3.495295
  H 3.614271 -3.804277 -3.013514
  H 6.539774 1.341713 -2.484830
 29
 75.542654
  H 2.128545 2.226065 0.282414
  C 2.867830 1.540320 -0.085064
  C 3.322750 0.430202 0.966001
  C 2.746525 0.832887 2.338831
  C 3.014768 -0.240965 3.385835
  C 3.226619 1.558321 -1.428611
  C 4.217770 0.812827 -1.957794
  C 5.070639 0.095440 -2.629787
  C 4.742737 -1.285041 -3.150638
  C 3.277816 -1.675730 -2.998490
  C 3.033610 -3.088419 -3.514455
  O 6.377368 0.424316 -2.854244
  H 4.362174 0.088837 1.296819
  H 2.886595 -0.509621 0.609104
  H 1.670776 0.975748 2.247614
  H 3.180125 1.776094 2.666232
  H 2.608306 -1.199814 3.075727
  H 2.541020 0.027681 4.325617
  H 4.078576 -0.358107 3.577662
  H 2.690898 2.241416 -2.078003
  H 4.164120 1.007782 0.352234
  H 5.385258 -2.000604 -2.631875
  H 5.030884 -1.303347 -4.204009
  H 2.654319 -0.974280 -3.554284
  H 2.987779 -1.623239 -1.948528
  H 3.303036 -3.166662 -4.565405
  H 1.985054 -3.356260 -3.413725
  H 3.626508 -3.810733 -2.958190
  H 6.569864 1.339430 -2.608724
 29
 64.789645
  H 2.362958 2.353359 0.439194
  C 3.022078 1.620706 0.011869
  C 3.292012 0.388062 1.018897
  C 2.732953 0.751898 2.398368
  C 2.876598 -0.422830 3.361542
  C 3.279152 1.656372 -1.386756
  C 4.175443 0.872451 -2.013889
  C 5.004026 0.179331 -2.735418
  C 4.692368 -1.231687 -3.176282
  C 3.267385 -1.680131 -2.868496
  C 3.041736 -3.119321 -3.315211
  O 6.254431 0.567497 -3.097277
  H 4.286580 -0.044493 1.233551
  H 2.739491 -0.459509 0.593263
  H 1.677353 1.013581 2.314252
  H 3.258622 1.616262 2.803855
  H 2.380014 -1.308924 2.973867
  H 2.421087 -0.179813 4.317125
  H 3.921570 -0.661572 3.544543
  H 2.723229 2.384260 -1.972260
  H 4.108439 1.288390 0.302701
  H 5.414320 -1.897864 -2.696815
  H 4.880911 -1.276537 -4.251595
  H 2.559708 -1.026580 -3.381701
  H 3.079896 -1.603750 -1.796628
  H 3.211786 -3.221925 -4.384648
  H 2.021322 -3.429651 -3.104224
  H 3.718953 -3.795300 -2.797724
  H 6.424907 1.500268 -2.899457
 29
 43.536653
  H 2.909816 2.553245 0.564929
  C 3.409237 1.727024 0.094165
  C 3.253812 0.398775 0.929852
  C 2.687959 0.708245 2.314312
  C 2.500545 -0.571050 3.123746
  C 3.555278 1.743957 -1.367589
  C 4.261787 0.933919 -2.105294
  C 4.987938 0.236301 -2.974727
  C 4.687929 -1.204496 -3.263372
  C 3.406900 -1.720682 -2.615138
  C 3.196193 -3.195698 -2.935327
  O 6.072495 0.690415 -3.594337
  H 4.146232 -0.209842 1.081527
  H 2.547570 -0.254506 0.401745
  H 1.724201 1.210972 2.217054
  H 3.361811 1.376357 2.852397
  H 1.854122 -1.271600 2.600527
  H 2.039852 -0.343878 4.082004
  H 3.453782 -1.056852 3.317854
  H 3.035779 2.559381 -1.870669
  H 4.476694 1.476132 0.258450
  H 5.543987 -1.800784 -2.937817
  H 4.633802 -1.300996 -4.351362
  H 2.553701 -1.146598 -2.979657
  H 3.464015 -1.593941 -1.533385
  H 3.122025 -3.350154 -4.009348
  H 2.279438 -3.558088 -2.478146
  H 4.023289 -3.794854 -2.562313
  H 6.221347 1.644883 -3.478049
 29
 28.800443
  H 3.165468 2.617865 0.597251
  C 3.686451 1.763000 0.201235
  C 3.387475 0.446456 0.946124
  C 2.617484 0.693440 2.244524
  C 2.344181 -0.611020 2.982802
  C 3.720296 1.677953 -1.292265
  C 4.421480 0.919364 -2.056845
  C 5.039187 0.163457 -2.996207
  C 4.619166 -1.240630 -3.263378
  C 3.379188 -1.696155 -2.502486
  C 3.045620 -3.144812 -2.839913
  O 6.077802 0.573105 -3.687259
  H 4.296096 -0.098766 1.180113
  H 2.765038 -0.211970 0.337597
  H 1.670371 1.183471 2.020725
  H 3.192255 1.355161 2.892109
  H 1.784919 -1.299601 2.356478
  H 1.760518 -0.422659 3.880429
  H 3.271879 -1.090808 3.279429
  H 3.101308 2.434188 -1.776449
  H 4.775689 1.769019 0.337140
  H 5.457080 -1.902779 -3.035111
  H 4.449789 -1.316228 -4.342349
  H 2.532714 -1.061357 -2.762267
  H 3.553568 -1.612518 -1.429864
  H 2.854487 -3.259181 -3.903805
  H 2.158841 -3.465683 -2.302420
  H 3.864132 -3.805030 -2.568799
  H 6.316390 1.511324 -3.563587
 29
 32.378090
  H 2.967996 2.598987 0.496839
  C 3.612324 1.806393 0.147365
  C 3.557738 0.559966 1.066837
  C 2.519443 0.739456 2.168346
  C 2.421189 -0.505203 3.048512
  C 3.708941 1.573232 -1.322276
  C 4.520375 0.811209 -1.960758
  C 5.177354 -0.008545 -2.822480
  C 4.658119 -1.362236 -3.151549
  C 3.258761 -1.672693 -2.617884
  C 2.822518 -3.075135 -3.031943
  O 6.353281 0.271389 -3.336894
  H 4.517378 0.341623 1.523211
  H 3.253628 -0.307959 0.476507
  H 1.544692 0.898628 1.702159
  H 2.739722 1.616529 2.782558
  H 2.178884 -1.379409 2.454842
  H 1.639108 -0.377811 3.795827
  H 3.351927 -0.687876 3.569585
  H 3.039541 2.199230 -1.917864
  H 4.666263 2.003363 0.312467
  H 5.378928 -2.115987 -2.825982
  H 4.650354 -1.414237 -4.248128
  H 2.546703 -0.945893 -2.998984
  H 3.256536 -1.610100 -1.528164
  H 2.801318 -3.170980 -4.113122
  H 1.826252 -3.288513 -2.655566
  H 3.500045 -3.825289 -2.635794
  H 6.646160 1.195776 -3.219658
 29
 17.335208
  H 3.082224 2.667136 0.422546
  C 3.656815 1.781474 0.156949
  C 3.056037 0.550176 0.837092
  C 2.831212 0.813077 2.330215
  C 2.274901 -0.426400 3.018228
  C 3.624670 1.581830 -1.341331
  C 4.385473 0.855129 -2.067117
  C 5.158670 0.049188 -2.844268
  C 4.725145 -1.326653 -3.187402
  C 3.413820 -1.784429 -2.556166
  C 3.083842 -3.212359 -2.979819
  O 6.311955 0.423600 -3.339792
  H 3.730303 -0.301066 0.714158
  H 2.098603 0.290233 0.379672
  H 2.132109 1.640530 2.460490
  H 3.775277 1.095568 2.798956
  H 1.318395 -0.710664 2.589399
  H 2.127754 -0.232318 4.076911
  H 2.959096 -1.264266 2.918787
  H 2.800201 2.114976 -1.815500
  H 4.687895 1.923811 0.478596
  H 5.538244 -2.006987 -2.911398
  H 4.662781 -1.397727 -4.279036
  H 2.601885 -1.124409 -2.861926
  H 3.490835 -1.743043 -1.469623
  H 2.973409 -3.282303 -4.058361
  H 2.152267 -3.536512 -2.524915
  H 3.866705 -3.900870 -2.670816
  H 6.594954 1.331194 -3.116519
