 31
 0.000000
  C 0.955507 0.145911 0.415914
  C 2.428568 0.140590 0.401501
  C 3.224876 0.605734 1.558077
  C 2.464707 1.098976 2.785722
  C 3.432568 1.538929 3.879827
  C 3.036386 -0.326362 -0.760761
  C 4.419626 -0.413108 -0.977562
  C 5.089766 -0.859569 -2.090704
  C 4.616704 -1.379537 -3.387480
  C 3.132839 -1.506809 -3.706077
  C 2.935500 -2.070483 -5.111886
  H 6.170576 -0.848499 -2.063039
  H 0.530380 0.517613 1.340802
  H 0.580519 -0.864843 0.249070
  H 0.579880 0.759671 -0.404025
  H 3.882470 1.413384 1.216953
  H 3.882930 -0.213002 1.870698
  H 1.828405 0.305144 3.181296
  H 1.828040 1.945527 2.522009
  H 4.068387 0.714137 4.193832
  H 2.882403 1.888478 4.749923
  H 4.068013 2.351859 3.535589
  H 2.373229 -0.642924 -1.548166
  H 5.042376 -0.082872 -0.155179
  H 5.083376 -2.365743 -3.508644
  H 5.083979 -0.750691 -4.156447
  H 2.650993 -0.529071 -3.660081
  H 2.650444 -2.181592 -2.997425
  H 3.382557 -1.420457 -5.860523
  H 1.874946 -2.159203 -5.334029
  H 3.382053 -3.057905 -5.203902
 31
 0.503104
  C 0.937868 0.230666 0.394619
  C 2.409943 0.187560 0.384451
  C 3.218467 0.602030 1.548621
  C 2.471751 1.088150 2.791390
  C 3.460542 1.446336 3.895471
  C 3.009748 -0.262727 -0.796012
  C 4.393804 -0.338502 -0.996684
  C 5.064191 -0.780216 -2.112752
  C 4.615001 -1.343996 -3.389239
  C 3.138108 -1.540108 -3.690585
  C 2.951505 -2.163351 -5.072685
  H 6.144746 -0.716383 -2.042622
  H 0.519922 0.605977 1.321208
  H 0.537850 -0.766390 0.192947
  H 0.581598 0.839138 -0.438569
  H 3.919862 1.380377 1.234316
  H 3.842914 -0.249747 1.841380
  H 1.807437 0.302378 3.148752
  H 1.879186 1.967457 2.540526
  H 4.052939 0.580388 4.180478
  H 2.933132 1.791634 4.780040
  H 4.136128 2.234103 3.573590
  H 2.309100 -0.552000 -1.559916
  H 5.029909 0.001909 -0.192373
  H 5.130550 -2.308317 -3.495186
  H 5.061528 -0.726634 -4.179593
  H 2.611199 -0.585739 -3.665615
  H 2.695484 -2.211546 -2.952491
  H 3.364892 -1.521283 -5.847903
  H 1.895779 -2.310528 -5.285879
  H 3.448880 -3.127873 -5.135639
 31
 0.765619
  C 0.925014 0.207856 0.403854
  C 2.402296 0.173077 0.390049
  C 3.205033 0.594909 1.553984
  C 2.472984 1.095773 2.796587
  C 3.466805 1.454041 3.887774
  C 3.012674 -0.278244 -0.782277
  C 4.394641 -0.342963 -0.992630
  C 5.063792 -0.780316 -2.113588
  C 4.609629 -1.338563 -3.390897
  C 3.143409 -1.532141 -3.689544
  C 2.953178 -2.152956 -5.078317
  H 6.153241 -0.707674 -2.049290
  H 0.509092 0.588240 1.325545
  H 0.529521 -0.790092 0.218685
  H 0.562411 0.819261 -0.430671
  H 3.916934 1.361681 1.216226
  H 3.836697 -0.260030 1.833042
  H 1.802700 0.317515 3.169258
  H 1.879284 1.983164 2.547761
  H 4.056662 0.584348 4.178259
  H 2.945451 1.814336 4.770653
  H 4.148277 2.241847 3.553697
  H 2.339295 -0.571733 -1.557965
  H 5.036231 -0.000924 -0.192891
  H 5.130360 -2.309153 -3.495579
  H 5.070159 -0.721143 -4.184318
  H 2.626621 -0.574782 -3.673724
  H 2.688260 -2.187735 -2.953881
  H 3.369580 -1.513324 -5.854520
  H 1.900386 -2.289291 -5.288646
  H 3.436610 -3.132184 -5.142228
 31
 1.463299
  C 0.938320 0.342002 0.362873
  C 2.412757 0.282252 0.336824
  C 3.212509 0.592758 1.542989
  C 2.476338 1.021710 2.806977
  C 3.462677 1.266448 3.939892
  C 3.016954 -0.090861 -0.865321
  C 4.397073 -0.136085 -1.099852
  C 5.055394 -0.582251 -2.207970
  C 4.612588 -1.278902 -3.411824
  C 3.141655 -1.608475 -3.641625
  C 2.956360 -2.344177 -4.962023
  H 6.134595 -0.471412 -2.176769
  H 0.525766 0.676863 1.309984
  H 0.517116 -0.626581 0.087035
  H 0.593456 1.013219 -0.428861
  H 3.949820 1.360356 1.287280
  H 3.814863 -0.288302 1.780246
  H 1.771097 0.241312 3.105743
  H 1.915551 1.938320 2.610881
  H 4.006516 0.352803 4.181258
  H 2.934958 1.572897 4.840591
  H 4.176596 2.039551 3.679803
  H 2.338596 -0.345156 -1.671881
  H 5.030573 0.254163 -0.311972
  H 5.194653 -2.208685 -3.454794
  H 4.981994 -0.709874 -4.270408
  H 2.548001 -0.690080 -3.669192
  H 2.773768 -2.239043 -2.828177
  H 3.287222 -1.729631 -5.797402
  H 1.906896 -2.581157 -5.121518
  H 3.524658 -3.271745 -4.978794
 31
 3.125967
  C 0.894367 0.515339 0.324646
  C 2.356530 0.372513 0.303273
  C 3.181074 0.521998 1.504249
  C 2.499630 0.971402 2.790318
  C 3.508189 1.038750 3.927529
  C 2.940349 0.059264 -0.941973
  C 4.335334 0.080555 -1.191756
  C 5.015401 -0.353259 -2.300141
  C 4.625401 -1.204857 -3.412210
  C 3.189753 -1.702270 -3.553969
  C 3.026501 -2.515666 -4.820106
  H 6.082148 -0.155445 -2.292701
  H 0.512868 0.812131 1.287016
  H 0.420271 -0.428014 0.036853
  H 0.575561 1.245041 -0.430318
  H 4.003085 1.218619 1.284335
  H 3.695727 -0.438422 1.692777
  H 1.701188 0.279365 3.066371
  H 2.059311 1.946777 2.651265
  H 3.937100 0.060602 4.125673
  H 3.025916 1.379038 4.836921
  H 4.309871 1.730422 3.697575
  H 2.239452 -0.140830 -1.724562
  H 4.938093 0.539351 -0.436449
  H 5.313531 -2.054503 -3.407568
  H 4.873800 -0.659284 -4.326010
  H 2.512073 -0.873465 -3.594666
  H 2.919607 -2.324796 -2.693536
  H 3.234380 -1.910867 -5.697774
  H 2.013542 -2.876690 -4.904916
  H 3.693523 -3.379032 -4.822374
 31
 4.403569
  C 0.904566 0.686638 0.257991
  C 2.354382 0.464364 0.239142
  C 3.177732 0.484357 1.464419
  C 2.507042 0.917947 2.770523
  C 3.487945 0.831522 3.936853
  C 2.931301 0.213671 -1.015800
  C 4.312474 0.251727 -1.290142
  C 4.973948 -0.155236 -2.408151
  C 4.622717 -1.142968 -3.438156
  C 3.251014 -1.819108 -3.411085
  C 3.047827 -2.674391 -4.660381
  H 6.038146 0.082088 -2.410875
  H 0.523362 0.936725 1.240579
  H 0.383808 -0.197325 -0.109842
  H 0.644709 1.488119 -0.438167
  H 4.061686 1.119484 1.306623
  H 3.607338 -0.518849 1.616957
  H 1.637363 0.284237 2.975116
  H 2.147174 1.947354 2.665260
  H 3.820397 -0.192660 4.096107
  H 3.003622 1.168404 4.856231
  H 4.356488 1.469147 3.771831
  H 2.217869 0.077621 -1.809222
  H 4.944096 0.737464 -0.546539
  H 5.418337 -1.896648 -3.445162
  H 4.714256 -0.615309 -4.403026
  H 2.474535 -1.063314 -3.376372
  H 3.144863 -2.452713 -2.529867
  H 3.080439 -2.065508 -5.559666
  H 2.074086 -3.158866 -4.630824
  H 3.804814 -3.452929 -4.732101
 31
 11.948253
  C 0.852952 0.590677 0.294952
  C 2.299344 0.347634 0.325981
  C 3.183926 0.478199 1.483528
  C 2.545015 0.984638 2.772297
  C 3.574596 1.024195 3.883141
  C 2.864647 0.014677 -0.992193
  C 4.246021 -0.005300 -1.148509
  C 4.983797 -0.312136 -2.256742
  C 4.616984 -1.121551 -3.426389
  C 3.226826 -1.723105 -3.513913
  C 3.076092 -2.553482 -4.782358
  H 6.044420 -0.109249 -2.171875
  H 0.417388 0.865375 1.243774
  H 0.363306 -0.309226 -0.076983
  H 0.627074 1.339732 -0.462084
  H 4.013128 1.141127 1.207516
  H 3.645041 -0.513399 1.675770
  H 1.734921 0.322918 3.081115
  H 2.143122 1.990470 2.629776
  H 3.976937 0.028013 4.060520
  H 3.133451 1.383665 4.810671
  H 4.401752 1.674583 3.615960
  H 2.007059 -0.083833 -1.634051
  H 4.816292 0.370942 -0.311921
  H 5.353541 -1.936836 -3.459549
  H 4.830248 -0.537952 -4.333889
  H 2.468738 -0.949714 -3.539638
  H 3.069782 -2.369412 -2.648623
  H 3.234227 -1.927149 -5.655763
  H 2.106855 -3.017954 -4.834912
  H 3.847009 -3.325081 -4.834172
 31
 42.629915
  C 0.827514 0.511027 0.256029
  C 2.271289 0.315389 0.345323
  C 3.177780 0.471193 1.449592
  C 2.537893 0.987406 2.745878
  C 3.601513 1.056774 3.845104
  C 2.872782 -0.066252 -1.114038
  C 4.243035 -0.073050 -1.128883
  C 5.065272 -0.318987 -2.231949
  C 4.678163 -1.076734 -3.430354
  C 3.265415 -1.655566 -3.444036
  C 3.020298 -2.478696 -4.717164
  H 6.125416 -0.126645 -2.072467
  H 0.324945 0.770015 1.191141
  H 0.394092 -0.400611 -0.175857
  H 0.611687 1.247694 -0.531488
  H 3.980871 1.159631 1.122686
  H 3.645972 -0.502623 1.645082
  H 1.767139 0.296403 3.067471
  H 2.149736 1.999198 2.572947
  H 4.014354 0.065218 4.024056
  H 3.179314 1.426530 4.780964
  H 4.418219 1.712202 3.556073
  H 1.896462 -0.121909 -1.532879
  H 4.764329 0.219470 -0.235453
  H 5.373990 -1.931136 -3.461144
  H 4.902957 -0.520153 -4.354697
  H 2.527238 -0.859069 -3.443457
  H 3.164379 -2.298794 -2.575099
  H 3.124149 -1.842819 -5.586860
  H 2.037379 -2.943010 -4.699547
  H 3.775281 -3.251140 -4.836816
 31
 78.416523
  C 0.707850 0.658626 0.441939
  C 2.122149 0.419515 0.458389
  C 3.073770 0.492026 1.506156
  C 2.573289 1.002933 2.867420
  C 3.693363 0.967065 3.912457
  C 2.781856 0.011432 -1.263947
  C 4.124941 0.076912 -1.303242
  C 4.991141 -0.217300 -2.355236
  C 4.751377 -1.154981 -3.457868
  C 3.351987 -1.769107 -3.545492
  C 3.193201 -2.642328 -4.811173
  H 6.027560 0.003670 -2.163051
  H 0.293288 0.963511 1.408990
  H 0.202674 -0.232216 0.080127
  H 0.473422 1.392287 -0.323907
  H 3.933114 1.093528 1.167219
  H 3.524769 -0.515124 1.616353
  H 1.744727 0.389071 3.200464
  H 2.208045 2.017760 2.759099
  H 4.048890 -0.049253 4.063988
  H 3.326589 1.343377 4.866167
  H 4.531663 1.585342 3.605170
  H 1.821550 -0.082964 -1.696157
  H 4.618347 0.502327 -0.456248
  H 5.510213 -1.949941 -3.404073
  H 4.944955 -0.625126 -4.397063
  H 2.611147 -0.971201 -3.564854
  H 3.178964 -2.387469 -2.662568
  H 3.322682 -2.045558 -5.709195
  H 2.206433 -3.088750 -4.840197
  H 3.927185 -3.442994 -4.822923
