 26
 0.000000
  C 1.013069 0.121134 0.392203
  C 2.489059 0.125819 0.410481
  C 3.241067 0.615539 1.578534
  H 2.629942 0.960493 2.401933
  C 3.112335 -0.350890 -0.733245
  C 4.481666 -0.441357 -0.977685
  C 5.136946 -0.882969 -2.121354
  C 4.614149 -1.387798 -3.420188
  C 3.118711 -1.497627 -3.691545
  C 2.879452 -2.042248 -5.097444
  O 6.457682 -0.882603 -2.134062
  H 0.574140 0.508627 1.306843
  H 0.645349 -0.894159 0.238566
  H 0.644451 0.717280 -0.447014
  H 3.894823 1.432920 1.265847
  H 3.895374 -0.180211 1.941880
  H 2.444495 -0.672831 -1.515408
  H 5.123954 -0.122708 -0.163493
  H 5.067219 -2.375227 -3.565675
  H 5.062124 -0.753559 -4.193861
  H 2.647025 -0.516991 -3.620345
  H 2.652219 -2.177748 -2.978092
  H 3.311381 -1.386138 -5.849505
  H 1.812847 -2.120889 -5.291942
  H 3.316628 -3.031262 -5.213144
  H 6.858534 -0.560241 -1.305011
 26
 -0.486313
  C 1.005015 0.197996 0.431679
  C 2.475193 0.103603 0.406591
  C 3.257943 0.553297 1.573213
  H 2.616840 0.865931 2.390988
  C 3.060299 -0.376830 -0.757840
  C 4.433780 -0.438488 -0.990799
  C 5.111591 -0.859148 -2.131695
  C 4.604441 -1.364194 -3.436489
  C 3.115052 -1.550164 -3.696067
  C 2.901587 -2.108915 -5.100918
  O 6.430440 -0.825688 -2.135619
  H 0.606357 0.403655 1.418548
  H 0.530516 -0.680978 0.001183
  H 0.750205 1.031056 -0.229819
  H 3.905041 1.388134 1.301469
  H 3.909437 -0.246654 1.925437
  H 2.387330 -0.706464 -1.530443
  H 5.070489 -0.109609 -0.177428
  H 5.114564 -2.319485 -3.607071
  H 5.015046 -0.692905 -4.200085
  H 2.595467 -0.594374 -3.626099
  H 2.690583 -2.252917 -2.978628
  H 3.297651 -1.431507 -5.853765
  H 1.841215 -2.246440 -5.295858
  H 3.392981 -3.072179 -5.216087
  H 6.834568 -0.499744 -1.309125
 26
 1.104707
  C 1.007736 0.236142 0.443979
  C 2.472394 0.125729 0.379222
  C 3.260768 0.463654 1.580338
  H 2.624672 0.837580 2.375902
  C 3.042607 -0.336015 -0.795369
  C 4.413097 -0.376101 -1.023371
  C 5.099661 -0.802364 -2.150610
  C 4.604892 -1.348857 -3.443330
  C 3.120741 -1.592159 -3.687058
  C 2.917054 -2.190376 -5.077427
  O 6.416572 -0.729798 -2.158473
  H 0.592481 0.201308 1.443739
  H 0.477690 -0.377180 -0.275304
  H 0.917162 1.273770 0.088743
  H 4.024225 1.210013 1.363769
  H 3.775748 -0.426612 1.942753
  H 2.370891 -0.665615 -1.567727
  H 5.041679 -0.017480 -0.217364
  H 5.148499 -2.288391 -3.599468
  H 4.985680 -0.676970 -4.221406
  H 2.569311 -0.652933 -3.635479
  H 2.726692 -2.291757 -2.949826
  H 3.282524 -1.515691 -5.849063
  H 1.860673 -2.372090 -5.260580
  H 3.443769 -3.137194 -5.174880
  H 6.812720 -0.387971 -1.335518
 26
 15.596268
  C 0.996308 0.149614 0.511863
  C 2.443524 0.137395 0.380605
  C 3.262292 0.463272 1.576902
  H 2.636444 0.790456 2.401816
  C 3.018321 -0.349324 -0.793134
  C 4.390538 -0.343888 -1.034356
  C 5.084172 -0.779976 -2.152256
  C 4.605620 -1.352238 -3.443591
  C 3.122164 -1.584725 -3.701402
  C 2.927359 -2.196050 -5.086791
  O 6.409870 -0.708499 -2.153566
  H 0.539380 0.270072 1.479331
  H 0.408873 -0.317312 -0.264608
  H 1.260749 1.194456 0.097222
  H 3.994725 1.241426 1.371817
  H 3.800132 -0.429055 1.893090
  H 2.354168 -0.713376 -1.555859
  H 5.015574 0.034867 -0.235344
  H 5.140248 -2.300542 -3.568928
  H 5.002890 -0.699881 -4.230041
  H 2.580112 -0.639879 -3.665787
  H 2.714364 -2.272949 -2.960404
  H 3.310287 -1.534780 -5.860831
  H 1.871698 -2.367872 -5.280678
  H 3.444808 -3.149436 -5.167059
  H 6.790917 -0.334348 -1.338293
 26
 32.688408
  C 0.986482 0.087007 0.565304
  C 2.405475 0.164274 0.380087
  C 3.260234 0.505577 1.563457
  H 2.649445 0.805045 2.409627
  C 2.995114 -0.365637 -0.793159
  C 4.365230 -0.360811 -1.027604
  C 5.063771 -0.790938 -2.142088
  C 4.595908 -1.356915 -3.442504
  C 3.114720 -1.592769 -3.708851
  C 2.927000 -2.189991 -5.101229
  O 6.395947 -0.714600 -2.138813
  H 0.527550 0.291305 1.515315
  H 0.366214 -0.317101 -0.218543
  H 1.579655 1.135903 0.044601
  H 3.956470 1.311129 1.342636
  H 3.834129 -0.370464 1.855101
  H 2.329197 -0.744660 -1.546789
  H 4.987873 0.020571 -0.227715
  H 5.134609 -2.302259 -3.573241
  H 4.994040 -0.695790 -4.221130
  H 2.569093 -0.650194 -3.664278
  H 2.707456 -2.291198 -2.977461
  H 3.309005 -1.518362 -5.866814
  H 1.872785 -2.365335 -5.300357
  H 3.449862 -3.139588 -5.190071
  H 6.766735 -0.345437 -1.318376
 26
 40.714346
  C 0.970299 0.027097 0.598535
  C 2.381911 0.199934 0.382328
  C 3.251465 0.527642 1.575313
  H 2.641234 0.792422 2.433007
  C 2.993168 -0.350571 -0.808924
  C 4.354799 -0.355151 -1.033271
  C 5.057234 -0.797181 -2.145788
  C 4.588051 -1.364885 -3.443902
  C 3.105539 -1.587973 -3.714258
  C 2.917256 -2.190094 -5.104552
  O 6.386586 -0.733459 -2.134805
  H 0.516928 0.243797 1.547386
  H 0.341228 -0.345025 -0.191389
  H 1.870911 1.157766 -0.047381
  H 3.925117 1.354505 1.368789
  H 3.845249 -0.342547 1.842038
  H 2.320986 -0.733842 -1.554965
  H 4.976666 0.026512 -0.232572
  H 5.118180 -2.315885 -3.568454
  H 4.995368 -0.711764 -4.224474
  H 2.568428 -0.640218 -3.676415
  H 2.689128 -2.279227 -2.981194
  H 3.307623 -1.525568 -5.871997
  H 1.862229 -2.356986 -5.306385
  H 3.431734 -3.144786 -5.187276
  H 6.758097 -0.363996 -1.314189
 26
 41.251354
  C 0.966870 -0.002284 0.611752
  C 2.364534 0.227076 0.386885
  C 3.238013 0.536084 1.590098
  H 2.622597 0.763081 2.454687
  C 2.993356 -0.329070 -0.822197
  C 4.349948 -0.343187 -1.037203
  C 5.053731 -0.800120 -2.148558
  C 4.577770 -1.371946 -3.439894
  C 3.093300 -1.580264 -3.712107
  C 2.902969 -2.192154 -5.098045
  O 6.375534 -0.751972 -2.131741
  H 0.521968 0.181568 1.570668
  H 0.332079 -0.346211 -0.184569
  H 2.158346 1.175521 -0.205739
  H 3.892133 1.383245 1.408837
  H 3.848721 -0.329254 1.834398
  H 2.316135 -0.726488 -1.556971
  H 4.970936 0.040511 -0.236457
  H 5.096452 -2.330436 -3.555377
  H 4.995610 -0.731834 -4.225472
  H 2.566201 -0.626511 -3.684935
  H 2.666620 -2.261145 -2.975259
  H 3.300626 -1.537614 -5.870206
  H 1.846951 -2.350927 -5.300840
  H 3.408495 -3.152256 -5.171969
  H 6.754017 -0.383110 -1.312723
 26
 43.692323
  C 0.975597 0.028967 0.618147
  C 2.354962 0.197507 0.417741
  C 3.233008 0.514016 1.607392
  H 2.622644 0.706181 2.484589
  C 2.978363 -0.302352 -0.829148
  C 4.350202 -0.327569 -1.043324
  C 5.045885 -0.791609 -2.145405
  C 4.566806 -1.371216 -3.433830
  C 3.080736 -1.569525 -3.705585
  C 2.886654 -2.196331 -5.084280
  O 6.371059 -0.752424 -2.133595
  H 0.529760 0.189133 1.580944
  H 0.327401 -0.272209 -0.184756
  H 2.406740 1.037197 -0.414106
  H 3.856557 1.386730 1.435025
  H 3.876795 -0.333585 1.828697
  H 2.301111 -0.710898 -1.558462
  H 4.969413 0.054618 -0.241052
  H 5.077109 -2.334031 -3.540042
  H 4.990731 -0.740290 -4.224522
  H 2.561432 -0.611325 -3.691281
  H 2.647317 -2.239318 -2.962171
  H 3.289421 -1.553540 -5.864508
  H 1.830553 -2.350066 -5.285505
  H 3.386007 -3.161052 -5.146647
  H 6.752248 -0.383428 -1.319010
 26
 40.508193
  C 0.988073 0.024043 0.637859
  C 2.336990 0.170592 0.454628
  C 3.228285 0.489087 1.620597
  H 2.634134 0.662154 2.512296
  C 2.950737 -0.245319 -0.834217
  C 4.344481 -0.291068 -1.048228
  C 5.036901 -0.778222 -2.134845
  C 4.557876 -1.369381 -3.419597
  C 3.071440 -1.561653 -3.693456
  C 2.877290 -2.199980 -5.066870
  O 6.366873 -0.749124 -2.121428
  H 0.537966 0.191375 1.598495
  H 0.331476 -0.256560 -0.166414
  H 2.528786 0.943122 -0.604314
  H 3.833381 1.374149 1.443189
  H 3.892755 -0.349444 1.817206
  H 2.275512 -0.679443 -1.552616
  H 4.961737 0.097725 -0.247761
  H 5.062246 -2.337540 -3.512669
  H 4.988181 -0.751330 -4.215629
  H 2.557670 -0.600268 -3.690514
  H 2.631843 -2.221816 -2.945316
  H 3.287181 -1.567858 -5.851252
  H 1.819783 -2.348091 -5.270460
  H 3.369212 -3.168614 -5.118657
  H 6.749625 -0.369867 -1.310636
 26
 29.562027
  C 1.007842 0.008113 0.638576
  C 2.336333 0.144489 0.485767
  C 3.246925 0.420324 1.631826
  H 2.676820 0.529718 2.549421
  C 2.921462 -0.126339 -0.875563
  C 4.338483 -0.217993 -1.075449
  C 5.033763 -0.754835 -2.135844
  C 4.555027 -1.376162 -3.404611
  C 3.068025 -1.549153 -3.686404
  C 2.874106 -2.224895 -5.041904
  O 6.361402 -0.748929 -2.107691
  H 0.541750 0.133922 1.599627
  H 0.352846 -0.228617 -0.181460
  H 2.620729 0.980075 -0.866000
  H 3.819282 1.333521 1.482175
  H 3.944643 -0.405425 1.757390
  H 2.251914 -0.611124 -1.569737
  H 4.950205 0.185073 -0.277973
  H 5.043300 -2.355192 -3.465001
  H 5.003423 -0.790512 -4.215296
  H 2.571594 -0.579352 -3.716183
  H 2.609647 -2.178937 -2.923435
  H 3.302227 -1.624279 -5.841136
  H 1.815830 -2.359266 -5.250709
  H 3.348005 -3.203640 -5.060663
  H 6.745399 -0.351803 -1.305450
 26
 20.847445
  C 1.022578 0.015775 0.640816
  C 2.351277 0.113162 0.494149
  C 3.274133 0.360429 1.630882
  H 2.722525 0.415012 2.564682
  C 2.897137 -0.032612 -0.900583
  C 4.330925 -0.168503 -1.081184
  C 5.028633 -0.739201 -2.124411
  C 4.548551 -1.377385 -3.382670
  C 3.062419 -1.542832 -3.671150
  C 2.870939 -2.241667 -5.015323
  O 6.353535 -0.753840 -2.082253
  H 0.549825 0.103341 1.603466
  H 0.364972 -0.170286 -0.190709
  H 2.624668 1.017756 -1.145672
  H 3.812181 1.298535 1.503310
  H 4.004251 -0.444081 1.702861
  H 2.268472 -0.643240 -1.537772
  H 4.939047 0.245645 -0.286788
  H 5.032435 -2.359475 -3.430592
  H 5.004706 -0.806809 -4.200502
  H 2.572603 -0.570676 -3.718955
  H 2.593447 -2.156483 -2.900933
  H 3.309130 -1.659740 -5.822782
  H 1.812760 -2.369492 -5.228339
  H 3.335227 -3.225123 -5.013681
  H 6.740079 -0.344102 -1.286961
 26
 18.901260
  C 1.022853 0.098016 0.649402
  C 2.357607 0.084432 0.509228
  C 3.279740 0.395408 1.630430
  H 2.728333 0.525645 2.556716
  C 2.892468 -0.171408 -0.866605
  C 4.336829 -0.248930 -1.045927
  C 5.041080 -0.755269 -2.116493
  C 4.559264 -1.352597 -3.393685
  C 3.074306 -1.553952 -3.662000
  C 2.875689 -2.186707 -5.037218
  O 6.366030 -0.732491 -2.090638
  H 0.552250 0.313746 1.592618
  H 0.357218 -0.129294 -0.165469
  H 2.514911 0.740165 -1.366103
  H 3.829961 1.314677 1.432951
  H 4.000359 -0.410334 1.762222
  H 2.347644 -0.976235 -1.359687
  H 4.936448 0.159640 -0.243151
  H 5.077069 -2.312595 -3.499921
  H 4.978891 -0.728295 -4.191968
  H 2.548946 -0.599890 -3.643277
  H 2.641647 -2.224068 -2.917562
  H 3.275148 -1.547901 -5.821388
  H 1.817777 -2.339698 -5.234229
  H 3.372617 -3.152098 -5.098927
  H 6.750821 -0.339010 -1.286482
 26
 18.610320
  C 1.020773 0.120330 0.634365
  C 2.358505 0.073838 0.518175
  C 3.263815 0.524144 1.607284
  H 2.697173 0.781560 2.497201
  C 2.911746 -0.370753 -0.809948
  C 4.357563 -0.381311 -0.995304
  C 5.059967 -0.800688 -2.101881
  C 4.565566 -1.328579 -3.404064
  C 3.079810 -1.533846 -3.653717
  C 2.855865 -2.069586 -5.065526
  O 6.386663 -0.748019 -2.095738
  H 0.527628 0.533059 1.498281
  H 0.363948 -0.270220 -0.127053
  H 2.435513 0.337735 -1.513572
  H 3.832110 1.404451 1.297856
  H 3.969475 -0.264244 1.861203
  H 2.466583 -1.334233 -1.090624
  H 4.949586 -0.003808 -0.174472
  H 5.092155 -2.275664 -3.572623
  H 4.965317 -0.657642 -4.175253
  H 2.540616 -0.595123 -3.552151
  H 2.672082 -2.256757 -2.946374
  H 3.228284 -1.371318 -5.812152
  H 1.793813 -2.223345 -5.248739
  H 3.364664 -3.021259 -5.208156
  H 6.776685 -0.397762 -1.274180
 26
 17.440748
  C 1.015386 0.092568 0.662277
  C 2.348734 0.097548 0.498783
  C 3.266667 0.540521 1.580879
  H 2.708447 0.825502 2.466578
  C 2.897476 -0.353094 -0.815661
  C 4.350534 -0.372538 -0.989693
  C 5.055784 -0.795316 -2.094480
  C 4.565122 -1.327432 -3.396879
  C 3.077488 -1.511221 -3.662115
  C 2.861336 -2.066530 -5.066700
  O 6.380102 -0.749339 -2.081508
  H 0.558094 0.404319 1.583499
  H 0.344829 -0.223151 -0.117483
  H 2.442256 0.277814 -1.595646
  H 3.853949 1.398471 1.255224
  H 3.953252 -0.260096 1.850324
  H 2.474861 -1.339699 -1.046156
  H 4.945506 -0.012116 -0.162915
  H 5.077209 -2.284782 -3.549448
  H 4.985378 -0.673060 -4.170035
  H 2.552282 -0.559334 -3.585072
  H 2.644962 -2.212388 -2.947603
  H 3.256073 -1.388613 -5.819861
  H 1.800293 -2.203306 -5.260325
  H 3.352235 -3.029668 -5.186422
  H 6.767651 -0.404101 -1.256722
