 20
 0.000000
  C 0.997279 0.115065 0.332492
  C 2.471476 0.121070 0.355968
  C 3.190980 0.601056 1.549442
  H 2.521870 0.919334 2.338361
  C 3.129540 -0.335245 -0.778995
  C 4.510619 -0.395846 -0.934230
  C 5.170517 -0.850190 -2.071547
  C 4.526733 -1.344395 -3.303603
  H 3.450083 -1.338527 -3.285599
  O 6.479114 -0.870119 -2.127696
  H 0.560393 0.489214 1.252189
  H 0.629121 -0.895859 0.149958
  H 0.640434 0.715132 -0.505868
  H 3.843440 1.434267 1.285101
  H 3.841988 -0.183889 1.936699
  H 2.498032 -0.661276 -1.591862
  H 5.128925 -0.064928 -0.110951
  H 4.886322 -2.355154 -3.498528
  H 4.884402 -0.746824 -4.142562
  H 6.930932 -0.548468 -1.326491
 20
 2.105739
  C 1.031871 0.075440 0.289933
  C 2.501560 0.118550 0.397418
  C 3.181681 0.632754 1.597504
  H 2.473240 0.941481 2.357899
  C 3.148267 -0.329547 -0.734294
  C 4.528030 -0.411666 -0.917625
  C 5.170619 -0.857825 -2.081344
  C 4.488710 -1.318759 -3.311106
  H 3.410845 -1.284394 -3.241385
  O 6.484203 -0.896540 -2.158756
  H 0.510647 0.526001 1.128888
  H 0.686456 -0.954441 0.170635
  H 0.782494 0.573008 -0.657939
  H 3.816633 1.480310 1.340348
  H 3.840456 -0.127608 2.017379
  H 2.445228 -0.609982 -1.525099
  H 5.159226 -0.106571 -0.092328
  H 4.811454 -2.335618 -3.535473
  H 4.824075 -0.710690 -4.151522
  H 6.953874 -0.594297 -1.359010
 20
 5.514275
  C 1.062049 0.058009 0.255000
  C 2.520028 0.117211 0.427731
  C 3.166424 0.643978 1.633999
  H 2.437788 0.944229 2.377556
  C 3.170540 -0.325498 -0.715533
  C 4.537150 -0.424058 -0.913262
  C 5.160865 -0.858469 -2.087541
  C 4.455677 -1.291601 -3.311609
  H 3.379456 -1.243770 -3.216859
  O 6.467801 -0.911157 -2.181125
  H 0.482655 0.616461 0.978405
  H 0.733280 -0.984730 0.276596
  H 0.919971 0.384802 -0.790733
  H 3.789999 1.498505 1.382656
  H 3.828722 -0.100111 2.069889
  H 2.421409 -0.556739 -1.473461
  H 5.174456 -0.141242 -0.086421
  H 4.759285 -2.308944 -3.556328
  H 4.781270 -0.673632 -4.147809
  H 6.950173 -0.623108 -1.382146
 20
 11.413748
  C 1.083763 0.037749 0.221720
  C 2.532649 0.112863 0.445920
  C 3.153905 0.656919 1.659121
  H 2.410528 0.952739 2.388194
  C 3.184964 -0.325942 -0.694945
  C 4.551986 -0.438797 -0.907529
  C 5.153300 -0.858451 -2.089102
  C 4.426145 -1.262663 -3.308093
  H 3.348858 -1.204811 -3.194818
  O 6.457662 -0.924833 -2.200329
  H 0.468266 0.684030 0.836829
  H 0.744751 -1.000170 0.369225
  H 1.037706 0.211760 -0.867987
  H 3.766806 1.516100 1.408089
  H 3.819934 -0.070076 2.110153
  H 2.386968 -0.507856 -1.441871
  H 5.199643 -0.178337 -0.083624
  H 4.714889 -2.278606 -3.573853
  H 4.745643 -0.634347 -4.138390
  H 6.956928 -0.654543 -1.397209
 20
 19.423058
  C 1.096324 0.038691 0.192113
  C 2.537610 0.117504 0.459887
  C 3.138853 0.645250 1.690238
  H 2.384184 0.928462 2.411917
  C 3.197217 -0.312370 -0.684061
  C 4.562464 -0.429682 -0.910096
  C 5.147704 -0.851701 -2.095837
  C 4.402333 -1.259941 -3.300891
  H 3.333011 -1.204757 -3.169530
  O 6.453806 -0.918934 -2.225984
  H 0.462955 0.752503 0.703506
  H 0.731947 -0.971436 0.436244
  H 1.151136 0.086355 -0.928043
  H 3.753119 1.511208 1.458466
  H 3.802808 -0.086290 2.141467
  H 2.355233 -0.474885 -1.404261
  H 5.219722 -0.167031 -0.094624
  H 4.688547 -2.273851 -3.568562
  H 4.705305 -0.633853 -4.136283
  H 6.963613 -0.646353 -1.433479
 20
 29.146779
  C 1.103115 0.050155 0.172132
  C 2.538608 0.120981 0.467533
  C 3.124111 0.618588 1.713542
  H 2.362911 0.888871 2.430114
  C 3.207972 -0.301196 -0.677592
  C 4.570356 -0.411574 -0.911240
  C 5.147904 -0.840952 -2.101303
  C 4.387912 -1.270974 -3.296238
  H 3.318807 -1.227709 -3.149121
  O 6.452868 -0.898489 -2.245613
  H 0.475430 0.826895 0.592093
  H 0.700128 -0.912598 0.495196
  H 1.241149 -0.012447 -0.960909
  H 3.746549 1.490207 1.506920
  H 3.781775 -0.129072 2.158676
  H 2.315607 -0.452435 -1.372383
  H 5.232861 -0.131986 -0.105069
  H 4.683666 -2.285267 -3.559752
  H 4.671185 -0.647830 -4.143161
  H 6.964978 -0.613005 -1.468994
 20
 40.508112
  C 1.106087 0.064035 0.156545
  C 2.538346 0.123731 0.468122
  C 3.114874 0.589851 1.733133
  H 2.345458 0.849612 2.451353
  C 3.215706 -0.289128 -0.676057
  C 4.576724 -0.390156 -0.918518
  C 5.145759 -0.831437 -2.108292
  C 4.377932 -1.285864 -3.280178
  H 3.311382 -1.254508 -3.115493
  O 6.451472 -0.879452 -2.269520
  H 0.491392 0.882973 0.520201
  H 0.668595 -0.864863 0.517606
  H 1.306724 -0.069371 -0.992046
  H 3.743508 1.459106 1.553891
  H 3.759500 -0.170261 2.165118
  H 2.268507 -0.435285 -1.353209
  H 5.245647 -0.087777 -0.123626
  H 4.684613 -2.301623 -3.534236
  H 4.640119 -0.668879 -4.141219
  H 6.971376 -0.577191 -1.503676
 20
 51.775659
  C 1.103416 0.090887 0.150912
  C 2.535813 0.124450 0.466409
  C 3.109887 0.549402 1.747334
  H 2.338289 0.802689 2.466796
  C 3.219842 -0.279090 -0.676772
  C 4.580294 -0.361611 -0.926078
  C 5.146134 -0.817887 -2.110331
  C 4.373338 -1.314546 -3.266652
  H 3.307334 -1.304832 -3.087737
  O 6.450583 -0.846643 -2.282694
  H 0.514259 0.942247 0.477068
  H 0.626224 -0.815784 0.527457
  H 1.345088 -0.096349 -1.020967
  H 3.755953 1.414656 1.595739
  H 3.739323 -0.235996 2.164969
  H 2.217505 -0.416115 -1.346396
  H 5.252008 -0.021417 -0.144989
  H 4.700352 -2.325145 -3.503980
  H 4.608898 -0.710552 -4.140762
  H 6.970566 -0.520337 -1.528518
 20
 61.847260
  C 1.097328 0.131442 0.149076
  C 2.532504 0.124111 0.462008
  C 3.108653 0.490015 1.764764
  H 2.337110 0.738031 2.487417
  C 3.221610 -0.265280 -0.678390
  C 4.581592 -0.320586 -0.939473
  C 5.146383 -0.800158 -2.113367
  C 4.373887 -1.360513 -3.241686
  H 3.311023 -1.384482 -3.042542
  O 6.448709 -0.799483 -2.301278
  H 0.540894 1.011374 0.456851
  H 0.581016 -0.753446 0.516220
  H 1.359507 -0.095300 -1.057475
  H 3.779371 1.341559 1.650515
  H 3.710688 -0.328061 2.158649
  H 2.167075 -0.389095 -1.358950
  H 5.250283 0.074838 -0.183294
  H 4.734533 -2.365067 -3.453667
  H 4.571087 -0.775277 -4.137896
  H 6.968144 -0.436203 -1.562720
 20
 70.887520
  C 1.096309 0.163901 0.154203
  C 2.528282 0.123477 0.455573
  C 3.100553 0.438414 1.778047
  H 2.331357 0.676765 2.495224
  C 3.228916 -0.247935 -0.672554
  C 4.585522 -0.285624 -0.948848
  C 5.144505 -0.787443 -2.114404
  C 4.370337 -1.400121 -3.211880
  H 3.315465 -1.449711 -2.990379
  O 6.445551 -0.764283 -2.323391
  H 0.567156 1.057563 0.463339
  H 0.548160 -0.718226 0.492965
  H 1.365536 -0.080184 -1.100515
  H 3.791326 1.281275 1.698409
  H 3.679821 -0.407616 2.152143
  H 2.123976 -0.360908 -1.385399
  H 5.259903 0.159476 -0.208748
  H 4.759849 -2.406395 -3.404241
  H 4.532611 -0.829780 -4.132409
  H 6.966530 -0.366222 -1.604759
 20
 80.051461
  C 1.089352 0.203836 0.179169
  C 2.524252 0.122336 0.448830
  C 3.097270 0.372487 1.790949
  H 2.321282 0.600611 2.517703
  C 3.242257 -0.222625 -0.662581
  C 4.594604 -0.242630 -0.962085
  C 5.149413 -0.772955 -2.113343
  C 4.375087 -1.452592 -3.174749
  H 3.322061 -1.532970 -2.927432
  O 6.446898 -0.722108 -2.346178
  H 0.586949 1.109226 0.509972
  H 0.519237 -0.673423 0.464080
  H 1.349559 -0.048706 -1.177218
  H 3.804996 1.199383 1.748831
  H 3.649682 -0.500574 2.132802
  H 2.070915 -0.324908 -1.452239
  H 5.256548 0.253515 -0.263477
  H 4.793200 -2.441437 -3.338219
  H 4.495819 -0.913823 -4.111078
  H 6.965518 -0.281477 -1.653648
 20
 87.996270
  C 1.085823 0.242375 0.207247
  C 2.519665 0.118683 0.440386
  C 3.087401 0.292492 1.808265
  H 2.310393 0.498377 2.531199
  C 3.265582 -0.184586 -0.646656
  C 4.606277 -0.189214 -0.979110
  C 5.150384 -0.758213 -2.113734
  C 4.373571 -1.515901 -3.118114
  H 3.331589 -1.627332 -2.831164
  O 6.440349 -0.676061 -2.386383
  H 0.609637 1.145865 0.576965
  H 0.489973 -0.638901 0.408414
  H 1.330994 0.013895 -1.277022
  H 3.810217 1.106157 1.814534
  H 3.614118 -0.611485 2.111256
  H 2.022448 -0.261656 -1.549213
  H 5.267879 0.374341 -0.319839
  H 4.827781 -2.495890 -3.249135
  H 4.441385 -1.016789 -4.081103
  H 6.960723 -0.184758 -1.729826
 20
 93.771347
  C 1.089648 0.278371 0.242196
  C 2.516969 0.111898 0.427000
  C 3.069203 0.184541 1.821666
  H 2.277795 0.354827 2.544545
  C 3.304197 -0.127972 -0.623109
  C 4.625878 -0.115630 -1.001777
  C 5.154138 -0.739268 -2.113382
  C 4.368102 -1.591655 -3.030452
  H 3.345839 -1.729174 -2.683501
  O 6.427760 -0.623827 -2.446535
  H 0.641074 1.169219 0.665057
  H 0.467988 -0.600724 0.343153
  H 1.308944 0.104303 -1.408317
  H 3.802448 0.986116 1.891644
  H 3.571832 -0.749734 2.068494
  H 1.985684 -0.167592 -1.686752
  H 5.276168 0.518815 -0.410962
  H 4.858089 -2.556136 -3.120800
  H 4.367127 -1.153012 -4.026225
  H 6.952608 -0.071875 -1.844986
 20
 96.703310
  C 1.102616 0.302080 0.265792
  C 2.522979 0.101283 0.409268
  C 3.046524 0.059984 1.832658
  H 2.238192 0.185205 2.541605
  C 3.354083 -0.070003 -0.596339
  C 4.644654 -0.033913 -1.023961
  C 5.151801 -0.719319 -2.111232
  C 4.350379 -1.660872 -2.930341
  H 3.353897 -1.808759 -2.520544
  O 6.396890 -0.575887 -2.510378
  H 0.679060 1.180635 0.736908
  H 0.463203 -0.567889 0.303711
  H 1.284625 0.176870 -1.562259
  H 3.778892 0.847372 1.976366
  H 3.531042 -0.894538 2.020657
  H 1.960546 -0.084340 -1.848190
  H 5.289799 0.679284 -0.511186
  H 4.869806 -2.615038 -2.987587
  H 4.280982 -1.288562 -3.948352
  H 6.925419 0.033963 -1.969780
