 25
 0.000000
  C 0.931489 0.036050 0.294164
  C 2.417686 0.062700 0.058660
  C 3.238643 -0.004121 1.326699
  H 2.592825 -0.055824 2.200066
  C 3.004515 0.133173 -1.152555
  C 2.354355 0.208404 -2.520055
  C 0.840146 0.223849 -2.710245
  C 0.507593 0.306005 -4.197969
  C 4.466267 0.136999 -1.239615
  C 5.211274 0.187445 -2.340240
  H 6.286568 0.182643 -2.271822
  H 0.712963 -0.023830 1.357357
  H 0.474925 -0.826991 -0.185500
  H 0.452324 0.932960 -0.089929
  H 3.870344 0.876969 1.435113
  H 3.878990 -0.885501 1.337533
  H 2.742221 -0.641739 -3.091968
  H 2.747255 1.113480 -2.996427
  H 0.399246 1.085599 -2.210440
  H 0.392448 -0.683358 -2.306691
  H 0.923705 1.211469 -4.635440
  H -0.569743 0.318124 -4.347647
  H 0.917176 -0.549763 -4.731135
  H 4.994662 0.093611 -0.300030
  H 4.814755 0.234043 -3.339045
 25
 -0.003602
  C 0.937194 -0.058158 0.294418
  C 2.417646 0.064322 0.055819
  C 3.232335 0.129088 1.326332
  H 2.580323 0.162333 2.195133
  C 3.002248 0.089672 -1.153599
  C 2.352035 0.138907 -2.522137
  C 0.838990 0.202290 -2.713169
  C 0.512502 0.378476 -4.194195
  C 4.462487 0.103516 -1.241673
  C 5.206751 0.134104 -2.340062
  H 6.281759 0.121053 -2.270850
  H 0.746491 -0.355993 1.322945
  H 0.500712 -0.809742 -0.353945
  H 0.427113 0.888789 0.123966
  H 3.858472 1.020050 1.347588
  H 3.877405 -0.743048 1.430107
  H 2.720441 -0.725301 -3.085261
  H 2.765427 1.030182 -3.007499
  H 0.421216 1.043491 -2.160815
  H 0.363802 -0.715455 -2.368185
  H 0.949047 1.298366 -4.578211
  H -0.563937 0.422395 -4.344459
  H 0.905134 -0.453835 -4.775027
  H 4.989410 0.065031 -0.300586
  H 4.810690 0.172503 -3.339155
 25
 0.556530
  C 0.956165 -0.178246 0.299917
  C 2.415150 0.084338 0.060582
  C 3.208309 0.290078 1.327648
  H 2.537685 0.365526 2.179977
  C 2.998599 0.050593 -1.151491
  C 2.344367 0.094521 -2.520129
  C 0.835295 0.222985 -2.714133
  C 0.523655 0.458599 -4.190305
  C 4.459230 0.063499 -1.247560
  C 5.204764 0.059230 -2.349152
  H 6.279501 0.026171 -2.280459
  H 0.838212 -0.699857 1.248935
  H 0.568000 -0.819721 -0.480044
  H 0.374933 0.741260 0.348972
  H 3.793582 1.207018 1.275971
  H 3.891614 -0.537906 1.516098
  H 2.683254 -0.780775 -3.084174
  H 2.787353 0.972153 -3.004372
  H 0.451872 1.063106 -2.134335
  H 0.315272 -0.682869 -2.403357
  H 0.998940 1.371194 -4.544478
  H -0.549401 0.550865 -4.342779
  H 0.884912 -0.370975 -4.794877
  H 4.985036 0.032699 -0.304546
  H 4.808211 0.086457 -3.348609
 25
 2.010334
  C 0.990976 -0.332452 0.305224
  C 2.407283 0.088583 0.049482
  C 3.161281 0.455758 1.304573
  H 2.461288 0.588857 2.125973
  C 2.997395 0.013603 -1.158427
  C 2.343510 0.051659 -2.527724
  C 0.841929 0.263878 -2.709193
  C 0.534062 0.557373 -4.175343
  C 4.454319 0.031235 -1.249262
  C 5.202944 -0.041387 -2.346163
  H 6.276499 -0.091009 -2.273062
  H 1.000992 -1.050943 1.126959
  H 0.606842 -0.845302 -0.563998
  H 0.343063 0.492296 0.595139
  H 3.710683 1.385508 1.165779
  H 3.872974 -0.316298 1.599607
  H 2.636147 -0.841629 -3.089118
  H 2.825708 0.904874 -3.018631
  H 0.509558 1.105367 -2.099465
  H 0.272525 -0.619680 -2.421131
  H 1.054969 1.452450 -4.508105
  H -0.533274 0.711060 -4.316612
  H 0.846247 -0.273233 -4.804873
  H 4.973421 0.036696 -0.301832
  H 4.807079 -0.060036 -3.346713
 25
 6.505976
  C 1.051073 -0.539079 0.285721
  C 2.404485 0.054284 0.041231
  C 3.072087 0.639556 1.255961
  H 2.358567 0.692214 2.074251
  C 3.006872 -0.051708 -1.161867
  C 2.346456 0.054093 -2.531779
  C 0.858346 0.374375 -2.675652
  C 0.528265 0.667425 -4.139858
  C 4.466782 -0.031118 -1.247111
  C 5.219324 -0.191390 -2.332505
  H 6.289105 -0.270278 -2.251011
  H 1.200720 -1.363157 0.993220
  H 0.706753 -1.003998 -0.631590
  H 0.323994 0.141184 0.718573
  H 3.430512 1.642695 1.034800
  H 3.923592 0.051906 1.599831
  H 2.564099 -0.839171 -3.125228
  H 2.881004 0.885817 -3.000623
  H 0.611332 1.249141 -2.068486
  H 0.229496 -0.454032 -2.351200
  H 1.097452 1.522709 -4.501570
  H -0.532031 0.889244 -4.254667
  H 0.768235 -0.191959 -4.765425
  H 4.977846 0.000310 -0.293834
  H 4.825083 -0.263463 -3.327357
 25
 16.690678
  C 1.137830 -0.750217 0.225331
  C 2.411105 0.011705 0.035387
  C 2.923012 0.846326 1.167421
  H 2.220257 0.817494 1.998442
  C 3.029834 -0.144925 -1.167847
  C 2.369212 0.070117 -2.524349
  C 0.900004 0.480533 -2.598002
  C 0.515870 0.796957 -4.042294
  C 4.481978 -0.193329 -1.238827
  C 5.236979 -0.349666 -2.327658
  H 6.301817 -0.493015 -2.245480
  H 1.374033 -1.584547 0.898083
  H 0.977779 -1.259004 -0.718390
  H 0.296643 -0.201629 0.638304
  H 3.034178 1.875376 0.825480
  H 3.896515 0.525205 1.540282
  H 2.514619 -0.800334 -3.174125
  H 2.948241 0.894109 -2.952069
  H 0.742061 1.367841 -1.978947
  H 0.238992 -0.300696 -2.229914
  H 1.123607 1.608809 -4.434540
  H -0.528661 1.092318 -4.102925
  H 0.662890 -0.075150 -4.676828
  H 4.983078 -0.207867 -0.276550
  H 4.840848 -0.358081 -3.327058
 25
 31.879541
  C 1.176092 -0.799973 0.187651
  C 2.410028 0.024537 0.037857
  C 2.879071 0.981331 1.079979
  H 2.120127 1.098464 1.843421
  C 3.022338 -0.253783 -1.152490
  C 2.369060 0.041350 -2.498621
  C 0.888419 0.404056 -2.548589
  C 0.517553 0.911821 -3.940433
  C 4.471567 -0.279844 -1.233710
  C 5.229924 -0.390532 -2.327455
  H 6.295297 -0.532886 -2.249831
  H 1.389037 -1.704255 0.772679
  H 1.243009 -1.312487 -0.798657
  H 0.289190 -0.313573 0.576166
  H 3.087469 1.944466 0.620526
  H 3.794130 0.656094 1.568684
  H 2.553839 -0.769388 -3.212756
  H 2.923686 0.914836 -2.859827
  H 0.678200 1.174716 -1.810420
  H 0.260082 -0.464225 -2.318045
  H 1.095756 1.803133 -4.197005
  H -0.540010 1.166630 -3.983566
  H 0.715675 0.147434 -4.690742
  H 4.969858 -0.347308 -0.271057
  H 4.827310 -0.419107 -3.323869
 25
 58.412406
  C 1.240933 -0.873620 0.175175
  C 2.378852 0.050803 0.047890
  C 2.780644 1.110473 1.012201
  H 2.031650 1.212256 1.793976
  C 3.006637 -0.311244 -1.147580
  C 2.384246 0.081334 -2.485624
  C 0.901607 0.437126 -2.502226
  C 0.488874 0.950762 -3.877752
  C 4.454474 -0.422748 -1.207259
  C 5.224305 -0.517544 -2.296208
  H 6.287478 -0.669430 -2.214167
  H 1.462884 -1.849913 0.620348
  H 1.595690 -1.360125 -0.882305
  H 0.307879 -0.483550 0.568000
  H 2.903602 2.063113 0.498611
  H 3.738123 0.877366 1.486958
  H 2.560726 -0.702981 -3.229764
  H 2.943492 0.962639 -2.806960
  H 0.703183 1.204735 -1.751513
  H 0.294838 -0.433920 -2.252842
  H 1.055216 1.841795 -4.142339
  H -0.569716 1.202691 -3.888697
  H 0.668269 0.193187 -4.639084
  H 4.934676 -0.508756 -0.238607
  H 4.835276 -0.464335 -3.297474
 25
 74.335288
  C 1.281774 -0.869307 0.222537
  C 2.347169 0.047056 0.055740
  C 2.746902 1.152378 0.966088
  H 2.018436 1.270429 1.765966
  C 2.986747 -0.356142 -1.167026
  C 2.379153 0.091904 -2.505838
  C 0.893102 0.433179 -2.508227
  C 0.466851 0.989445 -3.862711
  C 4.445071 -0.475437 -1.191654
  C 5.237549 -0.544392 -2.258963
  H 6.299492 -0.693327 -2.156377
  H 1.503902 -1.879667 0.542674
  H 1.869828 -1.333947 -1.015006
  H 0.342690 -0.530671 0.667172
  H 2.847144 2.095243 0.426496
  H 3.718247 0.933862 1.415088
  H 2.570288 -0.667004 -3.268437
  H 2.930153 0.992102 -2.801620
  H 0.687121 1.170929 -1.730038
  H 0.299612 -0.456551 -2.286257
  H 1.018415 1.897502 -4.096647
  H -0.594958 1.225527 -3.860675
  H 0.653915 0.263134 -4.650850
  H 4.896511 -0.583065 -0.211338
  H 4.870225 -0.472620 -3.267955
 25
 61.791996
  C 1.295564 -0.838556 0.297765
  C 2.296973 0.056621 0.065944
  C 2.726932 1.180317 0.936613
  H 2.020958 1.328286 1.751318
  C 2.969994 -0.385675 -1.190780
  C 2.377295 0.101652 -2.537478
  C 0.884108 0.405814 -2.531341
  C 0.441155 0.991020 -3.867446
  C 4.435754 -0.517580 -1.176633
  C 5.238866 -0.560071 -2.211205
  H 6.292433 -0.746086 -2.092115
  H 1.539450 -1.861254 0.530644
  H 2.117998 -1.272883 -1.141046
  H 0.370519 -0.559725 0.809859
  H 2.834749 2.115289 0.382547
  H 3.702674 0.939909 1.358512
  H 2.597331 -0.635355 -3.310132
  H 2.906324 1.023540 -2.814426
  H 0.656797 1.111831 -1.730567
  H 0.316735 -0.508544 -2.338049
  H 0.966795 1.921093 -4.072397
  H -0.626901 1.196485 -3.858410
  H 0.648690 0.295297 -4.677819
  H 4.856201 -0.675845 -0.190434
  H 4.905311 -0.382382 -3.217946
 25
 38.027485
  C 1.295448 -0.874083 0.393192
  C 2.263734 -0.023942 0.045624
  C 2.642537 1.223566 0.760451
  H 1.974719 1.411278 1.595946
  C 2.959253 -0.500901 -1.221046
  C 2.400153 0.110393 -2.527253
  C 0.904388 0.400506 -2.506270
  C 0.458399 1.071440 -3.799882
  C 4.435986 -0.591839 -1.154665
  C 5.274572 -0.601398 -2.170989
  H 6.339278 -0.655657 -2.016949
  H 1.502369 -1.915787 0.562182
  H 2.275737 -1.393842 -1.206799
  H 0.418717 -0.554884 0.958380
  H 2.647231 2.096469 0.105436
  H 3.654185 1.096211 1.140190
  H 2.629182 -0.567852 -3.348844
  H 2.928123 1.050051 -2.726233
  H 0.671771 1.052260 -1.663237
  H 0.344280 -0.528482 -2.369201
  H 0.980119 2.015505 -3.941566
  H -0.610538 1.269447 -3.780000
  H 0.674214 0.433628 -4.653968
  H 4.831847 -0.670585 -0.149245
  H 4.949000 -0.594838 -3.196488
 25
 19.513386
  C 1.292468 -0.849827 0.504284
  C 2.220684 -0.025472 0.021959
  C 2.641627 1.262176 0.644874
  H 1.993003 1.524642 1.477401
  C 2.928696 -0.550967 -1.218092
  C 2.406390 0.118114 -2.510710
  C 0.902312 0.369963 -2.523305
  C 0.477805 1.095033 -3.795118
  C 4.410135 -0.638485 -1.123975
  C 5.271458 -0.597392 -2.124518
  H 6.329856 -0.704884 -1.955680
  H 1.424369 -1.918384 0.529831
  H 2.353186 -1.496851 -1.245357
  H 0.509166 -0.532863 1.184363
  H 2.661808 2.088899 -0.066518
  H 3.656004 1.127010 1.017511
  H 2.671860 -0.520316 -3.354282
  H 2.921399 1.074585 -2.652827
  H 0.619306 0.966133 -1.654701
  H 0.370012 -0.582521 -2.458129
  H 0.970096 2.062505 -3.866660
  H -0.597755 1.257124 -3.800207
  H 0.738264 0.510857 -4.675370
  H 4.781340 -0.799851 -0.118150
  H 4.973320 -0.441072 -3.146743
 25
 7.744360
  C 1.269329 -0.799627 0.563933
  C 2.217213 -0.049318 0.018499
  C 2.695212 1.243821 0.594689
  H 2.080430 1.548744 1.438152
  C 2.907329 -0.577989 -1.222941
  C 2.407552 0.147193 -2.489482
  C 0.894080 0.330800 -2.537563
  C 0.469439 1.076470 -3.797356
  C 4.394599 -0.660141 -1.111591
  C 5.270677 -0.529600 -2.090122
  H 6.327307 -0.641382 -1.912952
  H 1.234277 -1.870610 0.457097
  H 2.437264 -1.572201 -1.296589
  H 0.585359 -0.420739 1.310400
  H 2.710150 2.046036 -0.143318
  H 3.717505 1.097767 0.940500
  H 2.720519 -0.435976 -3.357420
  H 2.887671 1.127459 -2.560386
  H 0.560497 0.886240 -1.659669
  H 0.406799 -0.646865 -2.513715
  H 0.921187 2.065887 -3.825998
  H -0.611414 1.192602 -3.826889
  H 0.780768 0.533912 -4.687750
  H 4.749535 -0.895731 -0.114783
  H 4.986515 -0.309153 -3.104378
 25
 0.471058
  C 1.279096 -0.773998 0.652173
  C 2.221436 -0.092789 0.019272
  C 2.746396 1.215196 0.524661
  H 2.163157 1.569736 1.370872
  C 2.861508 -0.637370 -1.239031
  C 2.398391 0.148188 -2.478128
  C 0.882118 0.301639 -2.558575
  C 0.468131 1.070045 -3.808049
  C 4.354224 -0.713421 -1.100499
  C 5.254967 -0.443025 -2.026392
  H 6.308607 -0.549178 -1.828462
  H 1.021748 -1.788003 0.398623
  H 2.464169 -1.654943 -1.347933
  H 0.764391 -0.354385 1.501856
  H 2.734466 1.975096 -0.255254
  H 3.780703 1.088382 0.842128
  H 2.742388 -0.382547 -3.368428
  H 2.864156 1.136252 -2.479815
  H 0.516163 0.824752 -1.673496
  H 0.418905 -0.687737 -2.571172
  H 0.901697 2.068011 -3.803879
  H -0.613942 1.167291 -3.856551
  H 0.806486 0.554871 -4.704830
  H 4.683946 -1.054292 -0.125620
  H 4.996492 -0.100174 -3.013100
 25
 -1.003241
  C 1.383931 -0.803409 0.763194
  C 2.237706 -0.105747 0.032297
  C 2.732582 1.245654 0.449236
  H 2.280094 1.550054 1.389574
  C 2.803217 -0.663024 -1.257040
  C 2.395287 0.176288 -2.474227
  C 0.879619 0.324012 -2.589183
  C 0.484109 1.073075 -3.856359
  C 4.290770 -0.827775 -1.103839
  C 5.230550 -0.411216 -1.931457
  H 6.273591 -0.590763 -1.728885
  H 1.057431 -1.787940 0.468679
  H 2.374101 -1.666573 -1.382725
  H 0.994237 -0.434098 1.697027
  H 2.500065 1.993608 -0.306529
  H 3.815681 1.224722 0.568909
  H 2.770345 -0.312532 -3.376677
  H 2.855994 1.163725 -2.414010
  H 0.495647 0.856706 -1.717146
  H 0.420555 -0.667787 -2.594879
  H 0.914983 2.072580 -3.859888
  H -0.597375 1.166619 -3.924490
  H 0.838864 0.545345 -4.739782
  H 4.572793 -1.354797 -0.199021
  H 5.015022 0.120872 -2.842408
