 22
 0.000000
  C 0.956024 0.054285 0.173662
  C 2.458412 0.058808 0.093487
  C 3.258000 -0.013810 1.380489
  C 2.473440 -0.087498 2.686339
  H 3.172551 -0.134458 3.518619
  C 3.080129 0.126331 -1.103129
  C 2.325162 0.199658 -2.402678
  H 1.251391 0.191865 -2.264533
  C 4.531282 0.133252 -1.225753
  C 5.217957 0.197309 -2.361062
  H 6.295059 0.197340 -2.361587
  H 0.603325 -0.003409 1.196085
  H 0.546916 -0.800423 -0.364918
  H 0.546918 0.964159 -0.265345
  H 3.907553 0.865322 1.432480
  H 3.907560 -0.893211 1.333250
  H 1.847183 -0.976204 2.723446
  H 1.847179 0.791385 2.823188
  H 2.598165 -0.645032 -3.035046
  H 2.598165 1.110123 -2.936007
  H 5.092422 0.081258 -0.304281
  H 4.759601 0.252145 -3.332888
 22
 10.554079
  C 0.833641 0.056380 0.136532
  C 2.465266 0.061405 0.047451
  C 3.321485 -0.017902 1.453003
  C 2.515508 -0.090575 2.740860
  H 3.200018 -0.138222 3.585328
  C 3.084787 0.127991 -1.132562
  C 2.334805 0.201442 -2.434302
  H 1.260574 0.193784 -2.298546
  C 4.536648 0.134376 -1.245674
  C 5.231953 0.198261 -2.377944
  H 6.309219 0.197856 -2.370734
  H 0.488011 -0.001431 1.161026
  H 0.428996 -0.797626 -0.401016
  H 0.428998 0.965440 -0.301527
  H 3.968071 0.860217 1.508664
  H 3.968079 -0.896708 1.409526
  H 1.887719 -0.978680 2.766345
  H 1.887715 0.789019 2.866093
  H 2.609165 -0.643605 -3.065343
  H 2.609166 1.112116 -2.966275
  H 5.090910 0.082143 -0.319960
  H 4.779846 0.253273 -3.352887
 22
 33.709124
  C 0.729192 0.056906 0.127202
  C 2.485645 0.064210 -0.002259
  C 3.389598 -0.022232 1.529732
  C 2.532521 -0.092198 2.769607
  H 3.180294 -0.141519 3.643727
  C 3.093664 0.129821 -1.164985
  C 2.339120 0.203125 -2.464112
  H 1.265617 0.194932 -2.318898
  C 4.548641 0.135781 -1.270591
  C 5.248148 0.199308 -2.396487
  H 6.325221 0.198511 -2.382348
  H 0.425638 -0.001537 1.162893
  H 0.335026 -0.798157 -0.402964
  H 0.335028 0.966186 -0.303404
  H 4.026537 0.855388 1.583635
  H 4.026545 -0.900344 1.484564
  H 1.901481 -0.978454 2.765594
  H 1.901472 0.788885 2.865321
  H 2.609422 -0.642968 -3.095379
  H 2.609423 1.114863 -2.996191
  H 5.094910 0.083286 -0.340232
  H 4.800390 0.254448 -3.373721
 22
 61.019537
  C 0.614318 0.056723 0.130464
  C 2.494116 0.065998 -0.033940
  C 3.446065 -0.027642 1.625618
  C 2.542051 -0.095597 2.829844
  H 3.156714 -0.146338 3.729132
  C 3.110828 0.132666 -1.215401
  C 2.353045 0.205975 -2.514613
  H 1.280232 0.197291 -2.360665
  C 4.568889 0.138253 -1.314391
  C 5.274930 0.201844 -2.441436
  H 6.352163 0.200789 -2.422727
  H 0.348220 -0.002204 1.174717
  H 0.232649 -0.805454 -0.399275
  H 0.232651 0.973022 -0.298917
  H 4.077037 0.855876 1.672561
  H 4.077040 -0.910826 1.572870
  H 1.909263 -0.980169 2.801056
  H 1.909259 0.786593 2.900748
  H 2.620289 -0.641136 -3.145852
  H 2.620287 1.118715 -3.046548
  H 5.107057 0.085464 -0.378829
  H 4.829940 0.257075 -3.420271
 22
 87.111200
  C 0.541824 0.056023 0.142888
  C 2.515325 0.069350 -0.093316
  C 3.515135 -0.033098 1.722285
  C 2.521007 -0.097471 2.862984
  H 3.067157 -0.150754 3.807214
  C 3.116641 0.135216 -1.260574
  C 2.346567 0.207925 -2.549174
  H 1.279402 0.197371 -2.362125
  C 4.571036 0.139813 -1.342010
  C 5.282648 0.203346 -2.468040
  H 6.359275 0.202045 -2.445026
  H 0.387630 -0.003860 1.204083
  H 0.215438 -0.825299 -0.393597
  H 0.215440 0.992106 -0.291040
  H 4.131495 0.866705 1.736025
  H 4.131481 -0.928710 1.634715
  H 1.888836 -0.980796 2.788924
  H 1.888823 0.788578 2.888769
  H 2.601508 -0.641384 -3.180572
  H 2.601505 1.122863 -3.081020
  H 5.086180 0.086306 -0.393710
  H 4.836198 0.258590 -3.447199
