 18
 0.000000
  C 0.882658 0.044468 0.347671
  C 2.364661 0.059382 0.083295
  C 3.261425 -0.009055 1.296235
  H 2.700891 -0.061400 2.223853
  C 2.928791 0.127190 -1.118378
  C 2.376177 0.205844 -2.512296
  C 0.870140 0.218621 -2.738707
  H 0.672248 0.278877 -3.806566
  H 4.013879 0.128612 -1.143530
  H 0.657277 -0.015572 1.411649
  H 0.412775 -0.815242 -0.125082
  H 0.412778 0.951905 -0.025365
  H 3.908313 0.867283 1.337766
  H 3.908317 -0.884503 1.238921
  H 2.795033 -0.640306 -3.069874
  H 2.795030 1.109342 -2.971134
  H 0.405743 1.076791 -2.262276
  H 0.405744 -0.687695 -2.361849
 18
 3.457839
  C 0.861602 0.045509 0.329215
  C 2.325277 0.059724 0.077233
  C 3.234349 -0.008375 1.284180
  H 2.678624 -0.060957 2.216036
  C 2.916296 0.126963 -1.114375
  C 2.386421 0.206033 -2.515673
  C 0.880746 0.218577 -2.737975
  H 0.679191 0.278851 -3.806157
  H 4.002711 0.127228 -1.119051
  H 0.887350 -0.014501 1.392683
  H 0.357610 -0.815659 -0.095673
  H 0.357615 0.949009 0.003904
  H 3.878041 0.867845 1.325440
  H 3.878043 -0.883678 1.226605
  H 2.811439 -0.639883 -3.067542
  H 2.811452 1.108681 -2.968889
  H 0.419378 1.077167 -2.261093
  H 0.419377 -0.688206 -2.360707
 18
 12.865061
  C 0.829101 0.046730 0.307559
  C 2.297885 0.059910 0.073955
  C 3.214145 -0.008135 1.279881
  H 2.675676 -0.061659 2.228392
  C 2.914696 0.126626 -1.108366
  C 2.396113 0.205873 -2.512836
  C 0.888407 0.218249 -2.732176
  H 0.682239 0.278504 -3.800083
  H 4.000979 0.126152 -1.099972
  H 1.056752 -0.011403 1.337744
  H 0.315883 -0.822272 -0.077791
  H 0.315884 0.953569 0.022416
  H 3.859978 0.872337 1.314878
  H 3.859977 -0.886947 1.215607
  H 2.823870 -0.643076 -3.064030
  H 2.823874 1.111442 -2.965032
  H 0.428393 1.079850 -2.251155
  H 0.428408 -0.691970 -2.351144
 18
 26.157934
  C 0.794667 0.046552 0.310807
  C 2.282697 0.059198 0.086642
  C 3.210990 -0.008386 1.284309
  H 2.694465 -0.062328 2.240202
  C 2.909162 0.125685 -1.091614
  C 2.396824 0.205827 -2.511970
  C 0.893490 0.219039 -2.746115
  H 0.697710 0.279337 -3.814734
  H 3.997436 0.124898 -1.077640
  H 1.188538 -0.008327 1.283306
  H 0.279889 -0.832100 -0.046205
  H 0.279899 0.959783 0.054917
  H 3.852324 0.867660 1.310315
  H 3.852320 -0.881793 1.211596
  H 2.827526 -0.641670 -3.058414
  H 2.827523 1.109418 -2.959613
  H 0.433403 1.073411 -2.272963
  H 0.433395 -0.683149 -2.372069
 18
 39.829740
  C 0.764793 0.047379 0.296406
  C 2.270925 0.058917 0.091678
  C 3.215082 -0.008736 1.290164
  H 2.708998 -0.063272 2.256471
  C 2.899717 0.125463 -1.087669
  C 2.397616 0.205043 -2.498088
  C 0.898680 0.218841 -2.742893
  H 0.711903 0.279333 -3.814921
  H 3.989328 0.124656 -1.073257
  H 1.288409 -0.005077 1.225789
  H 0.257410 -0.838052 -0.050394
  H 0.257436 0.966216 0.051432
  H 3.856525 0.868149 1.308998
  H 3.856462 -0.882125 1.210211
  H 2.832180 -0.642690 -3.040504
  H 2.832187 1.108478 -2.941725
  H 0.433761 1.076714 -2.271200
  H 0.433761 -0.686697 -2.370696
 18
 52.965179
  C 0.738312 0.047645 0.291770
  C 2.269634 0.058507 0.099097
  C 3.219751 -0.009119 1.297111
  H 2.717609 -0.063868 2.267058
  C 2.902265 0.124998 -1.079200
  C 2.401882 0.204783 -2.493197
  C 0.900422 0.218719 -2.740493
  H 0.715624 0.279167 -3.811642
  H 3.989915 0.124094 -1.063002
  H 1.358799 -0.001565 1.163614
  H 0.242494 -0.841288 -0.052339
  H 0.242527 0.969637 0.049872
  H 3.863450 0.872750 1.311642
  H 3.863402 -0.887008 1.212319
  H 2.837559 -0.641554 -3.034243
  H 2.837515 1.106568 -2.935577
  H 0.434744 1.076198 -2.268811
  H 0.434728 -0.686458 -2.368246
 18
 64.244799
  C 0.722993 0.047541 0.292706
  C 2.272156 0.058148 0.104823
  C 3.226855 -0.009402 1.302324
  H 2.725733 -0.063936 2.268831
  C 2.904261 0.124642 -1.073732
  C 2.406134 0.204346 -2.486377
  C 0.902515 0.218522 -2.737792
  H 0.720447 0.279332 -3.815753
  H 3.995669 0.123711 -1.057210
  H 1.412048 0.001797 1.103584
  H 0.236961 -0.844803 -0.050969
  H 0.236897 0.972979 0.051547
  H 3.862701 0.863419 1.314124
  H 3.862714 -0.878011 1.215884
  H 2.846691 -0.648720 -3.030023
  H 2.846796 1.113345 -2.930729
  H 0.431487 1.084368 -2.262308
  H 0.431593 -0.695106 -2.362797
 18
 73.398430
  C 0.700179 0.047806 0.287946
  C 2.269491 0.058053 0.107068
  C 3.242390 -0.010076 1.315602
  H 2.743165 -0.064712 2.284338
  C 2.898660 0.124596 -1.072359
  C 2.403058 0.204297 -2.485394
  C 0.907843 0.218683 -2.740641
  H 0.733300 0.278333 -3.798501
  H 3.984427 0.123700 -1.056193
  H 1.450426 0.004173 1.061914
  H 0.227646 -0.845061 -0.060742
  H 0.227528 0.974312 0.041832
  H 3.884490 0.872896 1.324533
  H 3.884893 -0.888841 1.225163
  H 2.843110 -0.645002 -3.024915
  H 2.843051 1.108827 -2.925942
  H 0.440236 1.074436 -2.272379
  H 0.440533 -0.683837 -2.371786
 18
 81.406623
  C 0.689839 0.046722 0.305512
  C 2.275659 0.057223 0.120088
  C 3.246023 -0.009737 1.308674
  H 2.740767 -0.065086 2.290583
  C 2.899505 0.123882 -1.061590
  C 2.401757 0.204090 -2.483208
  C 0.918484 0.218671 -2.741518
  H 0.748394 0.278977 -3.811679
  H 3.987061 0.123042 -1.047104
  H 1.489327 0.005669 1.034011
  H 0.231322 -0.855097 -0.053329
  H 0.231048 0.983529 0.050169
  H 3.883612 0.871230 1.310135
  H 3.883788 -0.885308 1.211118
  H 2.845632 -0.653907 -3.027795
  H 2.845842 1.118309 -2.928057
  H 0.448679 1.077842 -2.273368
  H 0.449195 -0.686885 -2.373352
 18
 88.067033
  C 0.671471 0.047497 0.294618
  C 2.285693 0.057284 0.121311
  C 3.267448 -0.010681 1.327191
  H 2.763543 -0.065140 2.293613
  C 2.904102 0.124029 -1.061950
  C 2.407137 0.204032 -2.479571
  C 0.910887 0.218911 -2.742876
  H 0.743317 0.279064 -3.809744
  H 3.987344 0.123268 -1.049323
  H 1.514295 0.007811 0.998511
  H 0.237131 -0.851712 -0.081857
  H 0.237133 0.983192 0.021626
  H 3.903924 0.868366 1.330545
  H 3.904491 -0.885136 1.231663
  H 2.848067 -0.643925 -3.017259
  H 2.848113 1.107068 -2.918473
  H 0.440181 1.076693 -2.276348
  H 0.440180 -0.685961 -2.375806
 18
 94.282942
  C 0.655919 0.046142 0.308834
  C 2.296533 0.056503 0.128845
  C 3.277790 -0.010745 1.325926
  H 2.772544 -0.065566 2.297362
  C 2.905179 0.123490 -1.057482
  C 2.406651 0.203625 -2.476499
  C 0.916461 0.218854 -2.745637
  H 0.753339 0.279070 -3.813250
  H 3.997712 0.122951 -1.048132
  H 1.539150 0.008961 0.970610
  H 0.242453 -0.852799 -0.093319
  H 0.241316 0.986218 0.009520
  H 3.914540 0.870862 1.327742
  H 3.914405 -0.886258 1.228805
  H 2.851188 -0.646453 -3.014119
  H 2.851153 1.108841 -2.914969
  H 0.441141 1.079897 -2.279143
  H 0.442315 -0.687333 -2.379925
 18
 99.410897
  C 0.631030 0.047387 0.324568
  C 2.315162 0.057494 0.133723
  C 3.297738 -0.010226 1.329161
  H 2.792615 -0.064384 2.296807
  C 2.910728 0.124350 -1.057889
  C 2.415650 0.203878 -2.468185
  C 0.914014 0.220040 -2.747270
  H 0.752613 0.281241 -3.831484
  H 3.987663 0.123609 -1.052900
  H 1.560084 0.012128 0.944882
  H 0.242398 -0.850078 -0.119236
  H 0.246573 0.981442 -0.012467
  H 3.933869 0.869807 1.331556
  H 3.935372 -0.888136 1.232467
  H 2.861441 -0.644332 -3.001383
  H 2.862214 1.106263 -2.902976
  H 0.440359 1.073356 -2.287706
  H 0.436573 -0.684221 -2.383909
 18
 103.980496
  C 0.597942 0.041619 0.338091
  C 2.344188 0.054488 0.139457
  C 3.318394 -0.011925 1.334577
  H 2.804660 -0.066694 2.295758
  C 2.920748 0.122717 -1.056628
  C 2.415285 0.202949 -2.474065
  C 0.918028 0.217942 -2.750055
  H 0.757020 0.278830 -3.824165
  H 4.011414 0.123485 -1.057459
  H 1.570179 0.010379 0.906719
  H 0.254303 -0.836199 -0.148790
  H 0.246152 0.983747 -0.054416
  H 3.954891 0.869841 1.342371
  H 3.955786 -0.886376 1.243271
  H 2.856795 -0.636887 -3.005004
  H 2.855515 1.097768 -2.906221
  H 0.436844 1.082824 -2.282976
  H 0.441896 -0.687847 -2.387135
 18
 107.421474
  C 0.538694 0.046844 0.356364
  C 2.377933 0.057628 0.138780
  C 3.344797 -0.010595 1.331768
  H 2.826172 -0.064116 2.286384
  C 2.935481 0.124745 -1.062204
  C 2.422903 0.204037 -2.475285
  C 0.925066 0.219677 -2.744692
  H 0.759970 0.279351 -3.816776
  H 4.033491 0.124795 -1.070339
  H 1.568695 0.017722 0.857765
  H 0.231030 -0.835842 -0.186800
  H 0.236940 0.973009 -0.077955
  H 3.982862 0.870032 1.344647
  H 3.980845 -0.887666 1.245465
  H 2.864192 -0.639041 -3.009502
  H 2.864715 1.101217 -2.911740
  H 0.449785 1.079007 -2.280556
  H 0.449082 -0.686955 -2.379428
