 20
 0.000000
  H 1.431515 0.165956 0.464509
  C 2.505485 0.138713 0.396221
  H 3.095157 0.474401 1.231892
  C 3.059125 -0.326562 -0.762857
  C 4.442437 -0.412925 -0.978618
  C 5.124535 -0.870261 -2.118431
  C 4.605342 -1.386927 -3.405958
  C 3.115323 -1.502582 -3.695589
  C 2.903638 -2.066089 -5.099092
  O 6.431906 -0.864787 -2.105017
  H 2.387464 -0.640225 -1.543871
  H 5.069850 -0.082883 -0.156679
  H 5.066482 -2.373907 -3.539942
  H 5.067406 -0.767150 -4.185200
  H 2.638937 -0.522881 -3.645397
  H 2.638231 -2.175198 -2.981972
  H 3.346114 -1.418613 -5.852098
  H 1.841507 -2.151506 -5.312900
  H 3.345542 -3.054843 -5.195029
  H 6.847002 -0.535581 -1.283052
 20
 -0.106713
  H 1.470450 0.298396 0.515740
  C 2.530158 0.214807 0.351073
  H 3.181469 0.687335 1.075098
  C 3.023443 -0.435363 -0.740153
  C 4.407343 -0.496979 -0.966317
  C 5.117285 -0.909179 -2.104183
  C 4.612042 -1.401988 -3.404241
  C 3.121806 -1.533134 -3.689309
  C 2.907746 -2.017735 -5.119850
  O 6.421992 -0.857462 -2.082893
  H 2.335507 -0.875594 -1.436799
  H 5.019898 -0.124355 -0.146913
  H 5.094525 -2.370898 -3.571350
  H 5.064846 -0.759421 -4.168506
  H 2.626870 -0.569395 -3.575692
  H 2.666248 -2.257543 -3.012399
  H 3.320148 -1.314734 -5.836256
  H 1.846619 -2.122321 -5.326699
  H 3.377143 -2.984432 -5.280043
  H 6.828463 -0.543314 -1.247899
 20
 1.465784
  H 1.433926 0.392071 0.265412
  C 2.500651 0.275758 0.190964
  H 3.099248 0.948564 0.781906
  C 3.056915 -0.605778 -0.678240
  C 4.442886 -0.570218 -0.929827
  C 5.149290 -0.976242 -2.070010
  C 4.624546 -1.418615 -3.380382
  C 3.128454 -1.526763 -3.637567
  C 2.878091 -1.917935 -5.090895
  O 6.454126 -0.906620 -2.068171
  H 2.421004 -1.277449 -1.229861
  H 5.046245 -0.129162 -0.142599
  H 5.095994 -2.384332 -3.603550
  H 5.063414 -0.738749 -4.121626
  H 2.640694 -0.570932 -3.443321
  H 2.684186 -2.291628 -3.000331
  H 3.255743 -1.159716 -5.771884
  H 1.812723 -2.030770 -5.272660
  H 3.361347 -2.862820 -5.330847
  H 6.869120 -0.620646 -1.230680
 20
 4.908945
  H 1.457006 0.594597 -0.087092
  C 2.502566 0.360349 0.005225
  H 3.087387 1.055023 0.595066
  C 3.066437 -0.685145 -0.644572
  C 4.463410 -0.654472 -0.874475
  C 5.161536 -1.046993 -2.017350
  C 4.628013 -1.417346 -3.351820
  C 3.131338 -1.562002 -3.587374
  C 2.859415 -1.850772 -5.062546
  O 6.468054 -0.972737 -2.024533
  H 2.442982 -1.411969 -1.140172
  H 5.074389 -0.229564 -0.087161
  H 5.134724 -2.346937 -3.646779
  H 5.023808 -0.666924 -4.047594
  H 2.614526 -0.644563 -3.309449
  H 2.730481 -2.388437 -2.998764
  H 3.158267 -1.013403 -5.687388
  H 1.799866 -2.026448 -5.223340
  H 3.401465 -2.735510 -5.394960
  H 6.886428 -0.727504 -1.176011
 20
 11.679915
  H 1.569191 0.788785 -0.416865
  C 2.542737 0.408704 -0.147746
  H 3.115221 1.070879 0.484884
  C 3.041498 -0.762177 -0.618446
  C 4.449621 -0.702365 -0.827487
  C 5.157878 -1.024610 -1.984002
  C 4.629240 -1.369360 -3.333783
  C 3.136587 -1.588245 -3.546875
  C 2.849906 -1.838043 -5.038803
  O 6.468977 -0.935138 -1.992351
  H 2.419416 -1.487101 -1.108381
  H 5.056218 -0.395192 0.018633
  H 5.168592 -2.273046 -3.653527
  H 4.986221 -0.587228 -4.014742
  H 2.582476 -0.708014 -3.232593
  H 2.785654 -2.459258 -2.980555
  H 3.163793 -0.994397 -5.645410
  H 1.784949 -1.990687 -5.201907
  H 3.371204 -2.725961 -5.395546
  H 6.896751 -0.798207 -1.125326
 20
 24.148829
  H 1.879307 1.007890 -0.761093
  C 2.707497 0.460110 -0.330193
  H 3.220953 0.999299 0.452756
  C 2.974098 -0.832264 -0.602378
  C 4.394261 -0.773144 -0.788676
  C 5.113929 -1.030485 -1.946673
  C 4.611911 -1.328703 -3.310547
  C 3.124797 -1.568960 -3.537428
  C 2.860328 -1.836016 -5.016046
  O 6.432738 -1.014760 -1.908045
  H 2.294194 -1.512316 -1.081712
  H 4.994717 -0.610965 0.103588
  H 5.173780 -2.202191 -3.663091
  H 4.946944 -0.506664 -3.953035
  H 2.540834 -0.706223 -3.222909
  H 2.801046 -2.449506 -2.976109
  H 3.104311 -0.963827 -5.616923
  H 1.813371 -2.071986 -5.177080
  H 3.455200 -2.675592 -5.376991
  H 6.827962 -0.749581 -1.054620
 20
 34.280294
  H 2.220175 0.848466 -1.282702
  C 2.886658 0.349473 -0.582913
  H 3.340863 1.030318 0.120636
  C 2.908676 -1.023774 -0.491026
  C 4.318292 -0.743640 -0.711198
  C 5.065224 -1.003349 -1.870912
  C 4.587365 -1.311255 -3.244741
  C 3.099995 -1.512871 -3.507668
  C 2.865037 -1.763396 -4.995646
  O 6.379149 -0.965926 -1.809449
  H 2.263870 -1.766440 -0.906667
  H 4.899592 -0.493749 0.170480
  H 5.132363 -2.204580 -3.571581
  H 4.962067 -0.507815 -3.890155
  H 2.533743 -0.631387 -3.213857
  H 2.732213 -2.377088 -2.955070
  H 3.158087 -0.898997 -5.586870
  H 1.813196 -1.959933 -5.184609
  H 3.435437 -2.622054 -5.341350
  H 6.760059 -0.769464 -0.933041
 20
 29.753942
  H 2.476612 0.716259 -1.484714
  C 2.987892 0.270895 -0.636585
  H 3.147575 0.979103 0.164253
  C 2.927149 -1.125591 -0.425151
  C 4.301432 -0.649905 -0.697934
  C 5.049883 -0.936443 -1.879711
  C 4.559632 -1.296121 -3.230306
  C 3.069488 -1.427136 -3.522567
  C 2.863702 -1.753349 -4.999320
  O 6.348887 -0.918835 -1.823021
  H 2.350663 -1.924257 -0.832632
  H 4.910317 -0.448497 0.176982
  H 5.060223 -2.232669 -3.497718
  H 4.993168 -0.556935 -3.915300
  H 2.546333 -0.499213 -3.302557
  H 2.631203 -2.228408 -2.931851
  H 3.230907 -0.946774 -5.631426
  H 1.806916 -1.892487 -5.211474
  H 3.385439 -2.667934 -5.274380
  H 6.749484 -0.680307 -0.962330
 20
 28.627604
  H 2.362764 0.426423 -1.558547
  C 2.905373 0.101872 -0.677819
  H 2.825170 0.813627 0.132518
  C 3.086475 -1.276500 -0.397357
  C 4.330232 -0.528168 -0.733786
  C 5.075838 -0.869454 -1.910958
  C 4.567032 -1.251358 -3.243611
  C 3.081060 -1.172265 -3.573648
  C 2.828556 -1.762599 -4.957106
  O 6.368629 -0.934328 -1.843469
  H 2.686800 -2.219719 -0.676510
  H 4.951582 -0.240558 0.112658
  H 4.922353 -2.272181 -3.426234
  H 5.123554 -0.645906 -3.964794
  H 2.749926 -0.132135 -3.579245
  H 2.488695 -1.726048 -2.844958
  H 3.354555 -1.196576 -5.725833
  H 1.768140 -1.738771 -5.188943
  H 3.159835 -2.795233 -5.007592
  H 6.782034 -0.691851 -0.992304
 20
 28.530530
  H 2.364833 0.424697 -1.552924
  C 2.904318 0.095658 -0.673444
  H 2.824466 0.803039 0.142064
  C 3.090834 -1.286467 -0.399547
  C 4.331705 -0.535281 -0.730954
  C 5.076391 -0.864936 -1.909144
  C 4.566703 -1.253912 -3.242505
  C 3.081189 -1.162706 -3.578099
  C 2.825927 -1.764331 -4.957326
  O 6.369013 -0.913298 -1.845397
  H 2.691432 -2.230544 -0.689369
  H 4.950944 -0.245560 0.114346
  H 4.911657 -2.281928 -3.414623
  H 5.133127 -0.660471 -3.969080
  H 2.761998 -0.119763 -3.594652
  H 2.480565 -1.702470 -2.846617
  H 3.365005 -1.217846 -5.727022
  H 1.766449 -1.723980 -5.196293
  H 3.139499 -2.804527 -4.994586
  H 6.782549 -0.667101 -0.992366
