 17
 0.000000
  H 1.433019 -0.076850 0.037190
  C 2.506133 -0.083343 0.024445
  C 3.220474 -0.593717 -0.977505
  C 4.657472 -0.605094 -0.999840
  C 5.379041 -1.120102 -2.010884
  C 6.816268 -1.130829 -2.031941
  C 7.534478 -1.641884 -3.035235
  C 9.023399 -1.662211 -3.075131
  H 3.002808 0.351865 0.878833
  H 2.711024 -1.027372 -1.828834
  H 5.161643 -0.170388 -0.146442
  H 4.874931 -1.554855 -2.864376
  H 7.322456 -0.696516 -1.179312
  H 7.035351 -2.077814 -3.891022
  H 9.456067 -1.209183 -2.185766
  H 9.382493 -1.117460 -3.949104
  H 9.382492 -2.689446 -3.148364
 17
 10.568870
  H 1.377282 -0.055164 0.079762
  C 2.452455 -0.066434 0.057639
  C 3.150176 -0.580802 -0.952149
  C 4.590097 -0.602203 -0.994162
  C 5.288228 -1.118182 -2.007113
  C 6.851840 -1.137069 -2.044189
  C 7.541501 -1.648114 -3.047464
  C 9.163383 -1.677770 -3.105680
  H 2.957166 0.366250 0.907068
  H 2.629161 -1.011754 -1.798172
  H 5.108163 -0.170703 -0.147060
  H 4.780851 -1.550503 -2.855830
  H 7.360576 -0.705022 -1.196010
  H 7.038569 -2.081510 -3.898281
  H 9.594415 -1.226304 -2.219378
  H 9.507587 -1.135288 -3.981129
  H 9.507587 -2.704869 -3.181618
 17
 33.416207
  H 1.341231 -0.031658 0.126176
  C 2.418377 -0.047737 0.094458
  C 3.096976 -0.569773 -0.930475
  C 4.535555 -0.603671 -0.997200
  C 5.200262 -1.122125 -2.015056
  C 6.885900 -1.141316 -2.052635
  C 7.535934 -1.658016 -3.066989
  C 9.296224 -1.688305 -3.126255
  H 2.930457 0.382799 0.939592
  H 2.564191 -0.997501 -1.770052
  H 5.067476 -0.176905 -0.159445
  H 4.715321 -1.558339 -2.871354
  H 7.368459 -0.705125 -1.196330
  H 7.057698 -2.095188 -3.925189
  H 9.686978 -1.230697 -2.227859
  H 9.605870 -1.139052 -4.007435
  H 9.605757 -2.724008 -3.200029
 17
 60.011791
  H 1.327247 -0.005152 0.177965
  C 2.401484 -0.030114 0.128946
  C 3.041349 -0.554044 -0.899639
  C 4.488763 -0.605954 -1.001553
  C 5.123218 -1.134685 -2.039529
  C 6.911206 -1.149828 -2.069200
  C 7.514888 -1.672174 -3.094672
  C 9.434081 -1.693523 -3.136609
  H 2.928690 0.396020 0.965534
  H 2.488331 -0.976984 -1.729946
  H 5.042324 -0.182999 -0.171184
  H 4.684686 -1.578781 -2.911349
  H 7.337295 -0.703964 -1.193916
  H 7.098449 -2.119517 -3.972886
  H 9.742679 -1.226427 -2.219612
  H 9.686452 -1.132469 -4.019064
  H 9.686470 -2.737220 -3.201662
 17
 87.875715
  H 1.302893 0.026136 0.239463
  C 2.368777 -0.009595 0.169268
  C 2.987249 -0.543308 -0.878523
  C 4.435283 -0.608620 -1.006792
  C 5.046188 -1.142121 -2.054164
  C 6.909451 -1.161930 -2.093065
  C 7.483796 -1.684307 -3.118586
  C 9.588168 -1.699774 -3.148830
  H 2.920134 0.413703 1.000240
  H 2.416348 -0.960092 -1.696701
  H 5.005430 -0.190009 -0.185021
  H 4.618010 -1.588818 -2.931089
  H 7.310103 -0.711512 -1.208811
  H 7.111879 -2.139051 -4.011302
  H 9.853649 -1.225808 -2.218344
  H 9.807960 -1.130534 -4.035730
  H 9.807919 -2.751898 -3.209848
 17
 113.616223
  H 1.279949 0.053027 0.292334
  C 2.351094 0.006337 0.200582
  C 2.943165 -0.532033 -0.856369
  C 4.386431 -0.609617 -1.008791
  C 4.972296 -1.146125 -2.062077
  C 6.895825 -1.172361 -2.113571
  C 7.441031 -1.694015 -3.137671
  C 9.745268 -1.705520 -3.160039
  H 2.919796 0.421422 1.015378
  H 2.352832 -0.944519 -1.666080
  H 4.971239 -0.195593 -0.196043
  H 4.549225 -1.591798 -2.936963
  H 7.276350 -0.720195 -1.225901
  H 7.105653 -2.151989 -4.036726
  H 9.972182 -1.230152 -2.226794
  H 9.933308 -1.134125 -4.046277
  H 9.933219 -2.758298 -3.218915
 17
 134.365119
  H 1.254772 0.063680 0.351320
  C 2.329597 0.017275 0.235602
  C 2.901479 -0.512843 -0.839929
  C 4.341794 -0.594627 -1.016639
  C 4.908008 -1.137375 -2.073193
  C 6.859684 -1.189751 -2.133245
  C 7.381207 -1.717320 -3.149550
  C 9.916921 -1.710434 -3.172267
  H 2.915300 0.418443 1.042761
  H 2.296171 -0.918690 -1.639994
  H 4.937537 -0.190531 -0.210925
  H 4.477755 -1.582425 -2.944063
  H 7.229922 -0.733740 -1.246979
  H 7.071694 -2.180545 -4.052031
  H 10.116957 -1.229365 -2.241261
  H 10.077493 -1.140307 -4.062166
  H 10.089394 -2.764124 -3.225692
 17
 130.759787
  H 1.300373 0.032928 0.384661
  C 2.374912 0.004086 0.265045
  C 2.950290 -0.428914 -0.853923
  C 4.383728 -0.537631 -1.022170
  C 4.958510 -1.115280 -2.079828
  C 6.458958 -1.285755 -2.163800
  C 7.023694 -1.887439 -3.175718
  C 10.251425 -1.641974 -3.151974
  H 2.956856 0.341715 1.100232
  H 2.341702 -0.772081 -1.685791
  H 4.987367 -0.172596 -0.201003
  H 4.425276 -1.512329 -2.930813
  H 6.937906 -0.835791 -1.307160
  H 6.793934 -2.385084 -4.085532
  H 10.321468 -1.115616 -2.222804
  H 10.310424 -1.088984 -4.071692
  H 10.433953 -2.700621 -3.167303
 17
 133.996212
  H 1.289161 0.055513 0.422473
  C 2.358257 0.017260 0.293988
  C 2.919225 -0.429391 -0.826270
  C 4.349139 -0.535318 -1.014700
  C 4.909904 -1.113551 -2.081472
  C 6.370401 -1.299630 -2.196796
  C 6.934084 -1.899873 -3.205334
  C 10.457372 -1.641088 -3.156163
  H 2.951367 0.372004 1.115901
  H 2.299108 -0.777335 -1.646957
  H 4.967394 -0.172133 -0.201408
  H 4.331281 -1.496425 -2.900830
  H 6.895786 -0.865373 -1.371470
  H 6.701991 -2.398182 -4.111795
  H 10.514341 -1.113641 -2.221286
  H 10.510780 -1.087962 -4.076621
  H 10.625916 -2.702913 -3.173040
 17
 135.467028
  H 1.285954 0.132917 0.449437
  C 2.352961 0.062190 0.318236
  C 2.894191 -0.418459 -0.796256
  C 4.320517 -0.562843 -0.997575
  C 4.859703 -1.143282 -2.077355
  C 6.292730 -1.338133 -2.241563
  C 6.852025 -1.932192 -3.257705
  C 10.652401 -1.618208 -3.151669
  H 2.957137 0.389236 1.141831
  H 2.261353 -0.750445 -1.608447
  H 4.958565 -0.202112 -0.199033
  H 4.233622 -1.507808 -2.872274
  H 6.883220 -0.925881 -1.429194
  H 6.610741 -2.422115 -4.163883
  H 10.683887 -1.096703 -2.210065
  H 10.695892 -1.057915 -4.064163
  H 10.815027 -2.678938 -3.170982
 17
 135.702886
  H 1.316344 0.228883 0.480272
  C 2.375242 0.092451 0.350631
  C 2.886275 -0.422818 -0.764128
  C 4.296831 -0.593712 -0.988427
  C 4.806882 -1.174133 -2.084735
  C 6.230550 -1.375614 -2.287220
  C 6.774340 -1.963222 -3.312914
  C 10.830502 -1.582344 -3.118693
  H 3.010313 0.432143 1.165809
  H 2.232416 -0.733146 -1.570086
  H 4.954099 -0.243546 -0.206641
  H 4.155297 -1.531508 -2.869185
  H 6.845594 -0.986504 -1.494921
  H 6.515283 -2.447934 -4.237631
  H 10.824159 -1.084159 -2.187236
  H 10.856956 -1.011783 -4.024561
  H 10.978311 -2.637697 -3.151323
 17
 135.905845
  H 1.332081 0.284377 0.519964
  C 2.389214 0.120130 0.376239
  C 2.873925 -0.415471 -0.740940
  C 4.281262 -0.610053 -0.988395
  C 4.766045 -1.193829 -2.093618
  C 6.177944 -1.402829 -2.323716
  C 6.700602 -1.989117 -3.361085
  C 11.016724 -1.557063 -3.103765
  H 3.041951 0.460518 1.168861
  H 2.205635 -0.716785 -1.528558
  H 4.954855 -0.267509 -0.222185
  H 4.100403 -1.541230 -2.863118
  H 6.825331 -1.020271 -1.529482
  H 6.411860 -2.454245 -4.266899
  H 10.984159 -1.061979 -2.154934
  H 11.019038 -0.986413 -4.002103
  H 11.143052 -2.613726 -3.152093
 17
 135.933518
  H 1.347377 0.314338 0.566184
  C 2.401494 0.161668 0.396654
  C 2.863983 -0.405969 -0.714813
  C 4.267928 -0.610405 -0.986515
  C 4.731879 -1.202356 -2.097877
  C 6.133638 -1.415807 -2.357729
  C 6.635992 -2.005519 -3.407147
  C 11.210048 -1.535008 -3.079409
  H 3.063601 0.479228 1.183763
  H 2.187245 -0.720057 -1.474230
  H 4.960949 -0.251750 -0.239039
  H 4.053541 -1.553920 -2.840925
  H 6.791573 -1.046778 -1.588563
  H 6.305245 -2.465827 -4.322190
  H 11.158996 -1.050761 -2.132819
  H 11.194551 -0.956179 -3.978650
  H 11.316644 -2.602780 -3.135372
 17
 135.953610
  H 1.404527 0.372019 0.608107
  C 2.447283 0.205655 0.418090
  C 2.877861 -0.356624 -0.708753
  C 4.262684 -0.641866 -0.977217
  C 4.690776 -1.239037 -2.097243
  C 6.105464 -1.470598 -2.385528
  C 6.572743 -2.050726 -3.449243
  C 11.373100 -1.486723 -3.053617
  H 3.129759 0.503226 1.196622
  H 2.169546 -0.651464 -1.475713
  H 4.975474 -0.321605 -0.227874
  H 3.986596 -1.550400 -2.861479
  H 6.779577 -1.124025 -1.609439
  H 6.218556 -2.493702 -4.345623
  H 11.305110 -1.015016 -2.098615
  H 11.334824 -0.899793 -3.941151
  H 11.474652 -2.546043 -3.119619
 17
 135.651871
  H 1.402362 0.358718 0.620722
  C 2.448438 0.197475 0.424630
  C 2.875146 -0.384210 -0.693787
  C 4.265361 -0.620011 -0.988821
  C 4.692892 -1.217736 -2.109217
  C 6.102511 -1.458309 -2.397985
  C 6.571229 -2.040019 -3.463537
  C 11.373255 -1.497815 -3.041866
  H 3.136186 0.528353 1.185955
  H 2.163835 -0.710672 -1.442155
  H 4.979739 -0.288017 -0.246299
  H 3.986052 -1.554039 -2.855481
  H 6.784650 -1.105309 -1.629843
  H 6.214669 -2.481220 -4.364875
  H 11.302524 -1.027504 -2.086475
  H 11.340503 -0.907678 -3.930716
  H 11.469178 -2.558729 -3.108542
