 13
 0.000000
  C 0.925276 0.052170 0.219556
  C 2.416706 0.058803 0.101097
  H 2.979041 0.004125 1.025721
  C 3.072394 0.125188 -1.057349
  H 2.514766 0.180317 -1.985123
  C 4.511397 0.129780 -1.171348
  C 5.160522 0.196372 -2.332144
  H 6.238058 0.197896 -2.386757
  H 0.617162 0.003971 1.261003
  H 0.502015 -0.803772 -0.303765
  H 0.499695 0.951163 -0.226794
  H 5.063338 0.074820 -0.241778
  H 4.631050 0.251820 -3.271088
 13
 5.891083
  C 0.924549 0.095057 0.238301
  C 2.385958 0.068049 0.093560
  H 2.998285 0.003956 1.037688
  C 3.042258 0.136198 -1.063882
  H 2.489561 0.206286 -1.993423
  C 4.484691 0.114109 -1.174807
  C 5.138184 0.183609 -2.323370
  H 6.212196 0.170671 -2.370857
  H 0.574168 -0.002280 1.261267
  H 0.769807 -0.805786 -0.342308
  H 0.444073 0.953787 -0.232768
  H 5.031748 0.039658 -0.243588
  H 4.617949 0.259886 -3.263306
 13
 18.556606
  C 0.920698 0.121064 0.246184
  C 2.366866 0.073242 0.104164
  H 2.993044 0.009448 1.023326
  C 3.029789 0.144211 -1.058770
  H 2.486314 0.229760 -1.982429
  C 4.455390 0.100568 -1.170328
  C 5.114830 0.175467 -2.324132
  H 6.184296 0.142920 -2.369986
  H 0.530137 -0.022341 1.258606
  H 1.003970 -0.772167 -0.348028
  H 0.423941 0.937900 -0.268104
  H 5.003929 0.003043 -0.237238
  H 4.599078 0.275420 -3.260859
 13
 32.030562
  C 0.898677 0.135831 0.263410
  C 2.343075 0.077259 0.086162
  H 2.984700 -0.002974 1.018043
  C 3.008115 0.167447 -1.071583
  H 2.459317 0.301505 -2.002468
  C 4.453291 0.076666 -1.180844
  C 5.125525 0.176315 -2.324892
  H 6.200825 0.107941 -2.364416
  H 0.528009 0.042289 1.267772
  H 1.164541 -0.787014 -0.239154
  H 0.349704 0.857561 -0.337209
  H 4.989834 -0.077986 -0.252965
  H 4.619675 0.335905 -3.264589
 13
 43.324777
  C 0.886382 0.156122 0.279007
  C 2.328488 0.076965 0.059542
  H 2.950073 -0.031948 0.976221
  C 3.004294 0.180980 -1.100634
  H 2.468416 0.344263 -2.028658
  C 4.435942 0.064812 -1.190634
  C 5.132843 0.175878 -2.320851
  H 6.200888 0.085596 -2.340677
  H 0.537885 0.086107 1.302929
  H 1.299208 -0.778304 -0.160734
  H 0.302496 0.792897 -0.359003
  H 4.952506 -0.119924 -0.267716
  H 4.650055 0.365670 -3.263337
 13
 51.161851
  C 0.874819 0.173377 0.283626
  C 2.323620 0.071184 0.058257
  H 2.934404 -0.065856 0.977285
  C 3.005904 0.194432 -1.105624
  H 2.466150 0.393619 -2.027952
  C 4.433485 0.059480 -1.198226
  C 5.135609 0.181664 -2.325352
  H 6.195127 0.060396 -2.346608
  H 0.523944 0.135917 1.299797
  H 1.411107 -0.774798 -0.093242
  H 0.270294 0.725395 -0.406626
  H 4.948723 -0.162544 -0.272436
  H 4.660031 0.390309 -3.261372
 13
 56.727117
  C 0.871538 0.202237 0.287547
  C 2.319488 0.042637 0.058580
  H 2.937583 -0.113723 0.987069
  C 3.009000 0.193799 -1.109102
  H 2.470001 0.418783 -2.018828
  C 4.428091 0.049397 -1.203939
  C 5.133954 0.186113 -2.327702
  H 6.201906 0.057370 -2.349220
  H 0.507845 0.210926 1.296135
  H 1.482788 -0.786269 -0.030222
  H 0.260032 0.665356 -0.465273
  H 4.942061 -0.193301 -0.280280
  H 4.658440 0.426044 -3.264594
 13
 61.791193
  C 0.869822 0.227028 0.291071
  C 2.316187 0.026136 0.064165
  H 2.925622 -0.126050 0.984230
  C 3.011568 0.199794 -1.108337
  H 2.471068 0.440534 -2.011470
  C 4.428009 0.043427 -1.205208
  C 5.138030 0.188862 -2.327880
  H 6.193504 0.054334 -2.347069
  H 0.494530 0.230259 1.293556
  H 1.553666 -0.792772 -0.011349
  H 0.260357 0.634729 -0.488480
  H 4.942514 -0.217859 -0.284672
  H 4.663559 0.427048 -3.268168
 13
 65.630451
  C 0.873396 0.260982 0.292755
  C 2.314356 0.006256 0.071922
  H 2.930074 -0.127132 0.993644
  C 3.014439 0.191634 -1.108467
  H 2.470283 0.435775 -2.009044
  C 4.423006 0.025038 -1.207475
  C 5.135844 0.181428 -2.330228
  H 6.200947 0.057183 -2.347075
  H 0.478448 0.250500 1.289624
  H 1.609196 -0.814399 -0.002017
  H 0.265523 0.619283 -0.512031
  H 4.938870 -0.235791 -0.288721
  H 4.663975 0.455501 -3.264464
 13
 67.988320
  C 0.879904 0.306658 0.297334
  C 2.311200 -0.021544 0.079014
  H 2.924739 -0.147450 0.995630
  C 3.017838 0.177396 -1.109077
  H 2.468379 0.414591 -2.009052
  C 4.423206 0.028630 -1.205794
  C 5.137551 0.184532 -2.330798
  H 6.203133 0.059495 -2.346902
  H 0.468913 0.260151 1.287071
  H 1.654775 -0.850476 -0.010773
  H 0.276295 0.636353 -0.520874
  H 4.943084 -0.227114 -0.286397
  H 4.665789 0.458423 -3.264564
 13
 68.654122
  C 0.889146 0.350844 0.298820
  C 2.306923 -0.038224 0.087503
  H 2.921188 -0.136445 1.008687
  C 3.022661 0.174630 -1.108569
  H 2.471840 0.422173 -2.003266
  C 4.419822 0.012641 -1.208527
  C 5.136785 0.182139 -2.334245
  H 6.208053 0.070854 -2.346944
  H 0.456240 0.262568 1.278007
  H 1.711909 -0.898917 -0.018128
  H 0.283056 0.636213 -0.532078
  H 4.941652 -0.250577 -0.293260
  H 4.666550 0.457934 -3.261531
 13
 67.492017
  C 0.901751 0.397269 0.305008
  C 2.299051 -0.055783 0.093828
  H 2.914546 -0.124635 1.017838
  C 3.029087 0.182336 -1.106852
  H 2.476356 0.427248 -2.001380
  C 4.419903 0.021079 -1.203988
  C 5.138993 0.186907 -2.334209
  H 6.206438 0.039861 -2.353584
  H 0.438679 0.256315 1.266452
  H 1.785645 -0.966081 -0.037701
  H 0.286581 0.641261 -0.533965
  H 4.939458 -0.263060 -0.293351
  H 4.667843 0.461171 -3.263130
 13
 66.050167
  C 0.920351 0.441610 0.310054
  C 2.287646 -0.083298 0.096580
  H 2.908139 -0.127228 1.019066
  C 3.028405 0.150799 -1.115564
  H 2.475399 0.413634 -2.005944
  C 4.411511 -0.019826 -1.211440
  C 5.138384 0.173996 -2.336994
  H 6.211510 0.085112 -2.338963
  H 0.439126 0.273812 1.257714
  H 1.851003 -1.032239 -0.049018
  H 0.303938 0.673070 -0.534606
  H 4.934008 -0.282928 -0.294918
  H 4.670189 0.460831 -3.264701
 13
 65.338513
  C 0.931429 0.461465 0.313986
  C 2.278287 -0.100178 0.095539
  H 2.895942 -0.126969 1.014501
  C 3.031906 0.151685 -1.118364
  H 2.481719 0.423524 -2.006671
  C 4.411838 -0.025653 -1.210442
  C 5.142271 0.166107 -2.336849
  H 6.215010 0.080295 -2.335382
  H 0.443268 0.271932 1.255019
  H 1.924765 -1.073091 -0.069788
  H 0.313080 0.700566 -0.529662
  H 4.932505 -0.302188 -0.297595
  H 4.674877 0.450664 -3.265300
