 11
 0.000000
  H 1.363789 0.138534 0.394016
  C 2.438759 0.112343 0.330826
  H 2.997512 0.456121 1.187788
  C 3.069460 -0.338694 -0.791602
  C 4.468638 -0.377772 -0.888368
  C 5.136985 -0.832587 -2.022769
  H 4.596249 -1.183510 -2.897020
  O 6.408836 -0.877035 -2.135413
  H 2.487034 -0.678108 -1.638017
  H 5.078602 -0.044714 -0.058413
  H 6.910241 -0.560997 -1.348714
 11
 6.072606
  H 1.336396 0.053273 0.393840
  C 2.409529 0.110148 0.328648
  H 2.930503 0.552850 1.163208
  C 3.080507 -0.367956 -0.757242
  C 4.478081 -0.259237 -0.878188
  C 5.158117 -0.698015 -2.008725
  H 4.590788 -0.954135 -2.905224
  O 6.435745 -0.758483 -2.155119
  H 2.535761 -0.878225 -1.539809
  H 5.016486 0.282995 -0.109308
  H 6.948792 -1.089723 -1.387645
 11
 15.562464
  H 1.281962 0.047695 0.366985
  C 2.354996 0.122063 0.324102
  H 2.855634 0.582928 1.163182
  C 3.055736 -0.345828 -0.750782
  C 4.454610 -0.234386 -0.830591
  C 5.169306 -0.707536 -1.926855
  H 4.627048 -1.106023 -2.788866
  O 6.452389 -0.576416 -2.040347
  H 2.531192 -0.820054 -1.568898
  H 4.995249 0.243158 -0.021692
  H 7.116324 -1.231986 -1.767478
 11
 5.552377
  H 1.245440 0.051167 0.328197
  C 2.319466 0.128070 0.312967
  H 2.797135 0.579557 1.168071
  C 3.048644 -0.328820 -0.745233
  C 4.446524 -0.206606 -0.793333
  C 5.207473 -0.725827 -1.837268
  H 4.716932 -1.231556 -2.668537
  O 6.481778 -0.546545 -1.854897
  H 2.546456 -0.801129 -1.579221
  H 4.976167 0.275391 0.020238
  H 7.075965 -1.257299 -2.172155
 11
 5.849492
  H 1.263344 -0.081578 0.350274
  C 2.336518 -0.007646 0.335092
  H 2.834985 0.116841 1.283458
  C 3.038616 -0.138826 -0.813746
  C 4.443768 -0.030077 -0.909980
  C 5.219889 -0.834577 -1.738398
  H 4.766654 -1.647007 -2.304804
  O 6.481806 -0.608975 -1.802981
  H 2.511317 -0.388948 -1.726108
  H 4.985506 0.701885 -0.319161
  H 7.075720 -1.267553 -2.221604
 11
 17.064800
  H 1.281553 -0.135105 0.385923
  C 2.335900 -0.160764 0.348607
  H 2.830609 -0.337403 1.282677
  C 3.026895 -0.006214 -0.780026
  C 4.415307 0.055938 -1.046641
  C 5.214032 -0.911755 -1.665027
  H 4.855041 -1.899527 -1.913271
  O 6.412909 -0.543397 -1.955215
  H 2.464991 0.060018 -1.696506
  H 5.011086 0.916552 -0.823540
  H 7.123045 -1.227900 -2.012481
 11
 37.054986
  H 1.281249 0.006698 0.517092
  C 2.356359 -0.171604 0.388510
  H 2.914198 -0.448712 1.268856
  C 2.955257 -0.031406 -0.777250
  C 4.308199 -0.176881 -1.148362
  C 5.182628 -1.053829 -1.726908
  H 5.060901 -2.090607 -2.010984
  O 6.327227 -0.422383 -1.953551
  H 2.361451 0.354071 -1.617919
  H 5.067566 0.687483 -1.161150
  H 7.182822 -0.848969 -1.670415
 11
 59.838871
  H 1.379568 0.122016 0.618549
  C 2.401872 -0.129393 0.399361
  H 3.012022 -0.475649 1.216521
  C 2.887461 -0.030710 -0.865142
  C 4.165942 -0.399509 -1.240063
  C 5.112163 -1.127664 -1.771558
  H 5.157963 -2.125223 -2.167742
  O 6.263331 -0.300694 -1.819884
  H 2.283397 0.430192 -1.640445
  H 5.315351 0.488402 -1.273390
  H 7.060264 -0.658189 -1.374222
 11
 55.903140
  H 1.376893 0.171208 0.644196
  C 2.382811 -0.122538 0.406381
  H 2.983996 -0.526512 1.198773
  C 2.851133 -0.038196 -0.877816
  C 4.103839 -0.446960 -1.263774
  C 5.081069 -1.130421 -1.773633
  H 5.143715 -2.125319 -2.172279
  O 6.254719 -0.266451 -1.780436
  H 2.259173 0.470590 -1.630449
  H 5.442420 0.463707 -1.301468
  H 7.034918 -0.634391 -1.305165
 11
 46.808262
  H 1.366384 0.180933 0.624698
  C 2.377192 -0.102197 0.395153
  H 2.979783 -0.485146 1.195735
  C 2.845920 -0.051553 -0.894743
  C 4.084161 -0.472796 -1.276183
  C 5.075453 -1.136469 -1.772075
  H 5.158668 -2.123309 -2.181132
  O 6.273845 -0.262216 -1.765169
  H 2.256165 0.443988 -1.658153
  H 5.630030 0.437006 -1.327589
  H 7.048797 -0.648825 -1.295030
 11
 39.298932
  H 1.326556 0.189366 0.612099
  C 2.339781 -0.127759 0.383910
  H 2.923088 -0.526614 1.182683
  C 2.833470 -0.050579 -0.889558
  C 4.060641 -0.460465 -1.263328
  C 5.073965 -1.112086 -1.736814
  H 5.158211 -2.109882 -2.125302
  O 6.300815 -0.294393 -1.796525
  H 2.251786 0.452767 -1.657229
  H 5.832862 0.499962 -1.399677
  H 7.069465 -0.698900 -1.312287
 11
 34.685232
  H 1.330556 0.202801 0.615601
  C 2.314821 -0.148242 0.373699
  H 2.891163 -0.598009 1.162666
  C 2.805656 -0.052956 -0.901695
  C 4.038111 -0.456092 -1.281258
  C 5.077202 -1.076903 -1.719540
  H 5.172085 -2.084622 -2.089267
  O 6.328247 -0.319946 -1.802671
  H 2.217983 0.451984 -1.657638
  H 6.016722 0.551663 -1.463353
  H 7.067299 -0.731489 -1.294181
 11
 32.509959
  H 2.651116 2.274905 0.221841
  C 2.882902 1.390762 -0.341354
  H 2.103815 0.967678 -0.949804
  C 4.137432 0.839220 -0.300098
  C 4.508639 -0.270840 -0.970390
  C 4.931280 -1.216080 -1.732914
  H 5.366978 -1.117293 -2.716176
  O 4.925482 -2.603555 -1.293505
  H 4.888660 1.285079 0.340848
  H 4.470654 -2.636013 -0.419869
  H 4.517932 -3.202082 -1.964937
 11
 32.380820
  H 2.680600 2.308139 0.243974
  C 2.889559 1.417116 -0.317055
  H 2.092126 0.999209 -0.904949
  C 4.137238 0.849722 -0.296691
  C 4.484635 -0.268650 -0.966297
  C 4.917170 -1.221888 -1.712660
  H 5.355836 -1.117841 -2.694366
  O 4.914514 -2.611329 -1.285892
  H 4.908969 1.295739 0.319821
  H 4.343911 -2.720826 -0.490166
  H 4.660332 -3.217608 -2.022080
 11
 32.814115
  H 2.715087 2.358988 0.233848
  C 2.895047 1.440694 -0.291905
  H 2.068727 0.998325 -0.818685
  C 4.141244 0.870806 -0.305115
  C 4.456277 -0.280712 -0.934570
  C 4.890228 -1.232113 -1.683570
  H 5.301159 -1.111936 -2.675887
  O 4.908272 -2.624171 -1.269573
  H 4.940196 1.339410 0.257595
  H 4.217196 -2.816199 -0.593932
  H 4.851457 -3.231312 -2.044567
