 32
 0.000000
  C 0.977144 0.137904 0.389220
  C 2.455153 0.134669 0.395430
  C 3.235073 0.606070 1.567787
  C 2.453311 1.097400 2.783440
  C 3.398405 1.543458 3.894556
  C 3.079753 -0.327274 -0.754498
  C 4.459209 -0.410139 -0.970559
  C 5.123602 -0.861276 -2.101271
  C 4.619671 -1.383850 -3.402879
  C 3.127740 -1.503389 -3.692574
  C 2.899043 -2.064966 -5.093093
  O 6.449750 -0.857519 -2.100940
  H 0.539378 0.515617 1.306392
  H 0.595113 -0.871822 0.228729
  H 0.612998 0.752915 -0.435109
  H 3.892835 1.417529 1.235840
  H 3.889940 -0.210799 1.892167
  H 1.813476 0.300985 3.168802
  H 1.816546 1.940575 2.508188
  H 4.032858 0.722002 4.221379
  H 2.829447 1.890840 4.754018
  H 4.035839 2.360005 3.561242
  H 2.425188 -0.645747 -1.548096
  H 5.082707 -0.080390 -0.147842
  H 5.075338 -2.372473 -3.531358
  H 5.071567 -0.755563 -4.179152
  H 2.651282 -0.523546 -3.637461
  H 2.655090 -2.176047 -2.975435
  H 3.333990 -1.416740 -5.850784
  H 1.832998 -2.147103 -5.291983
  H 3.337767 -3.055288 -5.194392
  H 6.828508 -0.522791 -1.266644
 32
 0.119125
  C 0.973787 -0.364040 0.653330
  C 2.425005 -0.138223 0.502655
  C 3.203626 0.628325 1.502908
  C 2.452704 1.174809 2.713213
  C 3.400423 1.951140 3.622367
  C 3.029086 -0.651929 -0.641584
  C 4.401880 -0.762657 -0.838366
  C 5.089882 -1.218716 -1.960049
  C 4.605784 -1.500238 -3.339262
  C 3.136873 -1.340663 -3.709482
  C 2.952197 -1.576910 -5.206554
  O 6.393826 -1.407312 -1.880565
  H 0.615522 -0.147735 1.652824
  H 0.730666 -1.393704 0.391167
  H 0.425743 0.269503 -0.047590
  H 3.683615 1.468088 0.987483
  H 4.026349 0.001668 1.865117
  H 2.012034 0.357504 3.286618
  H 1.651522 1.841001 2.390597
  H 4.201457 1.312158 3.987181
  H 2.864188 2.340756 4.484015
  H 3.844144 2.792540 3.094932
  H 2.365155 -1.033464 -1.397966
  H 5.027078 -0.531120 0.015680
  H 4.931130 -2.517498 -3.584648
  H 5.203584 -0.855341 -3.994769
  H 2.794026 -0.333550 -3.470979
  H 2.529360 -2.070392 -3.174197
  H 3.526786 -0.859819 -5.788212
  H 1.905572 -1.470859 -5.480040
  H 3.273863 -2.577699 -5.484980
  H 6.783393 -1.224783 -1.004439
 32
 3.775824
  C 1.061644 -0.613610 0.824781
  C 2.423482 -0.139475 0.514814
  C 3.150579 0.810056 1.383536
  C 2.488665 1.212600 2.697998
  C 3.367522 2.202154 3.457210
  C 3.005718 -0.618615 -0.659312
  C 4.354687 -0.907863 -0.808938
  C 5.034066 -1.409411 -1.913534
  C 4.597076 -1.540129 -3.330797
  C 3.193986 -1.126817 -3.756665
  C 3.043637 -1.283430 -5.267867
  O 6.279998 -1.822487 -1.770658
  H 0.790639 -0.440736 1.859312
  H 1.007375 -1.677488 0.598791
  H 0.323074 -0.116026 0.193453
  H 3.332868 1.715792 0.792408
  H 4.150443 0.415453 1.596313
  H 2.330120 0.332675 3.324028
  H 1.521283 1.678673 2.506487
  H 4.336281 1.765442 3.689556
  H 2.894886 2.487012 4.393891
  H 3.529037 3.106080 2.874140
  H 2.325095 -0.863203 -1.459528
  H 4.952701 -0.829548 0.092711
  H 4.769048 -2.582653 -3.620432
  H 5.325921 -0.966232 -3.915754
  H 3.011458 -0.084513 -3.493901
  H 2.449826 -1.761557 -3.275794
  H 3.757440 -0.656693 -5.797407
  H 2.043895 -0.994018 -5.581106
  H 3.206611 -2.315441 -5.569659
  H 6.631953 -1.750042 -0.864309
 32
 11.194399
  C 1.210892 -0.864662 1.002326
  C 2.438582 -0.184808 0.557451
  C 3.091755 0.893089 1.323859
  C 2.515198 1.231721 2.695286
  C 3.300878 2.370553 3.338183
  C 2.996789 -0.602551 -0.667646
  C 4.286039 -1.079015 -0.787714
  C 4.962302 -1.569585 -1.899201
  C 4.574165 -1.573365 -3.337435
  C 3.241216 -0.984596 -3.782100
  C 3.111399 -1.081184 -5.300181
  O 6.148729 -2.132031 -1.735583
  H 1.039573 -0.735638 2.064777
  H 1.302153 -1.922066 0.759880
  H 0.332412 -0.485081 0.475518
  H 3.063460 1.792300 0.696286
  H 4.161222 0.667894 1.422309
  H 2.563705 0.359304 3.349215
  H 1.471695 1.534302 2.600770
  H 4.345582 2.098089 3.470144
  H 2.889963 2.609088 4.315997
  H 3.255220 3.268794 2.726487
  H 2.329682 -0.615973 -1.516319
  H 4.833130 -1.163357 0.145976
  H 4.636414 -2.613533 -3.676226
  H 5.384504 -1.058536 -3.866837
  H 3.178786 0.065437 -3.494550
  H 2.415892 -1.538729 -3.335265
  H 3.909332 -0.531888 -5.794546
  H 2.162233 -0.664382 -5.627031
  H 3.156678 -2.116919 -5.628712
  H 6.460498 -2.155484 -0.812645
 32
 21.849104
  C 1.447611 -1.073453 1.152506
  C 2.526193 -0.234327 0.619854
  C 3.055791 0.953804 1.307778
  C 2.502050 1.266488 2.694778
  C 3.153519 2.526023 3.257479
  C 3.074788 -0.595247 -0.656111
  C 4.257261 -1.272201 -0.789578
  C 4.903218 -1.736195 -1.936538
  C 4.531964 -1.610414 -3.373933
  C 3.266654 -0.868731 -3.786138
  C 3.125393 -0.887345 -5.306227
  O 6.031488 -2.420845 -1.805362
  H 1.342164 -0.968885 2.226557
  H 1.635055 -2.110972 0.881447
  H 0.488413 -0.796520 0.702911
  H 2.880129 1.814506 0.650835
  H 4.150724 0.875841 1.358167
  H 2.699945 0.436651 3.375204
  H 1.423685 1.420050 2.642747
  H 4.230668 2.402349 3.344219
  H 2.759871 2.746217 4.246601
  H 2.957338 3.384612 2.619199
  H 2.477162 -0.342330 -1.519203
  H 4.756486 -1.522275 0.141323
  H 4.490400 -2.631097 -3.771463
  H 5.393399 -1.151253 -3.872657
  H 3.316049 0.170371 -3.458633
  H 2.389574 -1.351401 -3.355120
  H 3.976416 -0.404841 -5.781438
  H 2.224998 -0.359659 -5.610202
  H 3.061024 -1.907363 -5.677905
  H 6.325826 -2.535491 -0.883871
 32
 20.539575
  C 1.755911 -1.245638 1.299936
  C 2.679420 -0.294515 0.675712
  C 3.038095 0.999861 1.281581
  C 2.466134 1.305020 2.662892
  C 2.947574 2.668393 3.149320
  C 3.228692 -0.617340 -0.608022
  C 4.265291 -1.502265 -0.794006
  C 4.836851 -1.927107 -1.992942
  C 4.457584 -1.649925 -3.407516
  C 3.268319 -0.758037 -3.741696
  C 3.101393 -0.663457 -5.256451
  O 5.905000 -2.713594 -1.949398
  H 1.692706 -1.138467 2.378228
  H 1.974624 -2.273504 1.015973
  H 0.761214 -1.039024 0.892148
  H 2.740580 1.802538 0.591643
  H 4.131495 1.065020 1.311280
  H 2.786121 0.546421 3.378785
  H 1.376191 1.306907 2.626858
  H 4.032763 2.696466 3.218231
  H 2.542753 2.883234 4.135113
  H 2.626445 3.458726 2.474615
  H 2.774348 -0.124336 -1.453620
  H 4.715138 -1.905000 0.106224
  H 4.308079 -2.630682 -3.874104
  H 5.351887 -1.242952 -3.893047
  H 3.429951 0.248072 -3.354695
  H 2.353491 -1.175550 -3.319475
  H 3.989913 -0.240286 -5.719299
  H 2.255399 -0.028226 -5.506102
  H 2.926276 -1.645309 -5.690169
  H 6.204719 -2.930802 -1.048559
 32
 10.092697
  C 2.100867 -1.353967 1.407627
  C 2.873955 -0.322307 0.705922
  C 3.040930 1.041832 1.253631
  C 2.437079 1.315938 2.627617
  C 2.708537 2.755510 3.053281
  C 3.416741 -0.608071 -0.560747
  C 4.283093 -1.658076 -0.824354
  C 4.772360 -2.071130 -2.057877
  C 4.374069 -1.682002 -3.440300
  C 3.282316 -0.647663 -3.685005
  C 3.043545 -0.492985 -5.185099
  O 5.737836 -2.976948 -2.097028
  H 2.117607 -1.248221 2.487713
  H 2.371873 -2.359119 1.095498
  H 1.060242 -1.225184 1.091931
  H 2.625659 1.762379 0.537142
  H 4.113040 1.265567 1.275773
  H 2.871280 0.646180 3.371529
  H 1.359221 1.151031 2.603837
  H 3.777301 2.950221 3.108576
  H 2.280775 2.947723 4.034079
  H 2.268006 3.459371 2.350748
  H 3.150422 0.067910 -1.358493
  H 4.668745 -2.187446 0.038978
  H 4.089849 -2.617971 -3.935758
  H 5.288768 -1.362748 -3.952000
  H 3.583010 0.322820 -3.290393
  H 2.350486 -0.964297 -3.215230
  H 3.948918 -0.165261 -5.690680
  H 2.266896 0.244279 -5.371465
  H 2.728065 -1.434866 -5.627914
  H 6.039716 -3.281714 -1.222173
 32
 3.144553
  C 2.463975 -1.415707 1.470271
  C 3.098838 -0.323582 0.719000
  C 3.049602 1.073808 1.209922
  C 2.416639 1.301708 2.578559
  C 2.432936 2.783698 2.939795
  C 3.674246 -0.574613 -0.522238
  C 4.357120 -1.743296 -0.861342
  C 4.736240 -2.172615 -2.126296
  C 4.284709 -1.703943 -3.465748
  C 3.315022 -0.536364 -3.597667
  C 2.918205 -0.353989 -5.060461
  O 5.564633 -3.195478 -2.245240
  H 2.570154 -1.310969 2.545874
  H 2.794285 -2.388758 1.121014
  H 1.391483 -1.368799 1.258641
  H 2.513946 1.682515 0.471035
  H 4.069927 1.472556 1.212115
  H 2.966720 0.751691 3.344064
  H 1.384603 0.948762 2.578889
  H 3.450978 3.165847 2.969847
  H 1.986118 2.940707 3.918412
  H 1.869358 3.367534 2.215493
  H 3.631858 0.221882 -1.248680
  H 4.694004 -2.361571 -0.037448
  H 3.841603 -2.584511 -3.946498
  H 5.186472 -1.493468 -4.050948
  H 3.783322 0.387147 -3.257762
  H 2.415794 -0.724945 -3.010513
  H 3.790594 -0.150758 -5.677149
  H 2.229319 0.480184 -5.165037
  H 2.429075 -1.245708 -5.445535
  H 5.889613 -3.555898 -1.399798
 32
 2.708334
  C 2.707337 -1.442271 1.388300
  C 3.338109 -0.320535 0.673564
  C 3.115451 1.079693 1.112131
  C 2.371098 1.277239 2.426998
  C 2.169656 2.760056 2.718553
  C 4.073370 -0.544047 -0.471638
  C 4.591274 -1.790961 -0.873455
  C 4.793205 -2.233072 -2.168571
  C 4.200841 -1.696569 -3.425212
  C 3.339136 -0.442173 -3.382691
  C 2.658840 -0.226971 -4.730617
  O 5.471670 -3.343601 -2.395440
  H 2.748782 -1.317121 2.466193
  H 3.137487 -2.386686 1.075560
  H 1.648594 -1.476102 1.118205
  H 2.560014 1.597754 0.320996
  H 4.083058 1.591491 1.159416
  H 2.939456 0.834232 3.247233
  H 1.396851 0.790160 2.386315
  H 3.124441 3.277076 2.783637
  H 1.649774 2.894155 3.664047
  H 1.576632 3.233297 1.938623
  H 4.318476 0.315103 -1.077958
  H 4.965498 -2.433549 -0.084664
  H 3.612103 -2.518891 -3.848871
  H 5.023513 -1.551578 -4.133154
  H 3.950774 0.431859 -3.165180
  H 2.575471 -0.538372 -2.611070
  H 3.394904 -0.117485 -5.523499
  H 2.050809 0.673224 -4.708860
  H 2.012503 -1.065056 -4.979344
  H 5.879845 -3.741043 -1.603585
 32
 9.185201
  C 2.719497 -1.374447 1.057497
  C 3.406548 -0.176267 0.542736
  C 3.191909 1.172775 1.120039
  C 2.333060 1.237211 2.378564
  C 2.134263 2.681074 2.827763
  C 4.251196 -0.353617 -0.524258
  C 4.787429 -1.629296 -0.880529
  C 4.907169 -2.153517 -2.149277
  C 4.159661 -1.729865 -3.365623
  C 3.240958 -0.518373 -3.279934
  C 2.438144 -0.370663 -4.569132
  O 5.622706 -3.243557 -2.369973
  H 2.568080 -1.366572 2.129378
  H 3.278129 -2.231451 0.678697
  H 1.743445 -1.477319 0.575922
  H 2.720344 1.796105 0.350216
  H 4.164390 1.636282 1.313110
  H 2.815716 0.683588 3.186310
  H 1.357414 0.787081 2.190595
  H 3.089049 3.157045 3.040483
  H 1.531002 2.718662 3.731455
  H 1.626937 3.261286 2.060154
  H 4.600058 0.510638 -1.073038
  H 5.378166 -2.105231 -0.104426
  H 3.583137 -2.602701 -3.692913
  H 4.898459 -1.570705 -4.158240
  H 3.822904 0.389349 -3.130123
  H 2.549847 -0.630335 -2.443227
  H 3.097961 -0.243037 -5.424074
  H 1.787122 0.497793 -4.513472
  H 1.818550 -1.246876 -4.745192
  H 6.121984 -3.565030 -1.597886
 32
 18.475395
  C 2.790804 -1.299464 0.851887
  C 3.441424 -0.045086 0.440658
  C 3.202308 1.258401 1.112700
  C 2.329505 1.205652 2.363521
  C 2.080092 2.605582 2.913269
  C 4.351842 -0.187171 -0.568371
  C 4.855712 -1.508620 -0.875640
  C 4.955750 -2.085358 -2.126040
  C 4.143690 -1.736700 -3.325135
  C 3.170183 -0.568599 -3.223565
  C 2.312523 -0.481163 -4.485214
  O 5.717278 -3.145106 -2.332321
  H 2.578497 -1.389382 1.903132
  H 3.459010 -2.051053 0.376213
  H 1.892618 -1.513190 0.266978
  H 2.722967 1.924884 0.384329
  H 4.163410 1.720927 1.354273
  H 2.822178 0.610813 3.134518
  H 1.372047 0.740629 2.130671
  H 3.016173 3.093100 3.171269
  H 1.466165 2.559224 3.809726
  H 1.563261 3.224494 2.182122
  H 4.795671 0.667522 -1.060875
  H 5.576392 -1.863274 -0.140630
  H 3.599520 -2.643403 -3.614559
  H 4.844136 -1.558002 -4.147507
  H 3.713319 0.368832 -3.107985
  H 2.514555 -0.697849 -2.360612
  H 2.934212 -0.345559 -5.368799
  H 1.628265 0.362348 -4.421866
  H 1.722390 -1.386273 -4.619306
  H 6.271086 -3.407068 -1.572187
 32
 33.494588
  C 2.898780 -1.220457 0.733726
  C 3.503783 0.063731 0.396763
  C 3.214990 1.334656 1.124566
  C 2.312994 1.189428 2.347452
  C 2.017024 2.550237 2.968619
  C 4.412042 -0.036766 -0.607396
  C 4.862850 -1.417602 -0.839612
  C 4.946332 -2.042452 -2.090473
  C 4.114340 -1.732921 -3.282018
  C 3.110098 -0.589571 -3.188472
  C 2.255280 -0.536657 -4.451318
  O 5.724554 -3.088555 -2.275866
  H 2.631734 -1.397271 1.762764
  H 3.773755 -1.882148 0.100961
  H 2.161624 -1.619120 0.037495
  H 2.734171 2.017128 0.415037
  H 4.154815 1.805202 1.420898
  H 2.799734 0.562382 3.096526
  H 1.371378 0.717258 2.060845
  H 2.936391 3.042524 3.278185
  H 1.381336 2.440412 3.843983
  H 1.505919 3.197503 2.258928
  H 4.877012 0.796464 -1.103896
  H 5.691029 -1.669078 -0.177425
  H 3.588418 -2.657202 -3.549599
  H 4.797576 -1.553297 -4.118908
  H 3.627072 0.361983 -3.079176
  H 2.455173 -0.727288 -2.328645
  H 2.873343 -0.384254 -5.332955
  H 1.543685 0.282823 -4.393523
  H 1.696519 -1.460463 -4.582569
  H 6.273618 -3.342627 -1.510754
 32
 39.543996
  C 2.879911 -1.191497 0.732856
  C 3.495597 0.060181 0.403201
  C 3.200475 1.341521 1.127939
  C 2.278859 1.205049 2.337324
  C 1.981105 2.569719 2.948371
  C 4.425487 -0.024368 -0.584837
  C 4.888368 -1.420150 -0.822400
  C 4.993302 -2.002424 -2.120749
  C 4.140867 -1.678353 -3.288470
  C 3.083252 -0.590123 -3.136853
  C 2.216275 -0.522329 -4.390828
  O 5.817682 -2.990765 -2.347971
  H 2.571677 -1.377850 1.748954
  H 4.025915 -1.912014 -0.096940
  H 2.246468 -1.672170 0.000404
  H 2.735271 2.021638 0.407404
  H 4.137598 1.806962 1.440473
  H 2.750126 0.578037 3.096167
  H 1.339012 0.736568 2.037520
  H 2.898701 3.057708 3.270114
  H 1.331100 2.466735 3.814046
  H 1.484937 3.216586 2.227890
  H 4.888557 0.816146 -1.069404
  H 5.758465 -1.634341 -0.193879
  H 3.656636 -2.613997 -3.592913
  H 4.806086 -1.430393 -4.123105
  H 3.554320 0.379670 -2.987656
  H 2.443274 -0.797718 -2.280641
  H 2.818374 -0.300335 -5.268762
  H 1.466411 0.258056 -4.291372
  H 1.701512 -1.465241 -4.560301
  H 6.384289 -3.254342 -1.597092
 32
 35.982067
  C 2.742470 -1.195643 0.777182
  C 3.444867 -0.030075 0.442388
  C 3.195774 1.288824 1.128645
  C 2.221026 1.245189 2.301941
  C 1.985199 2.644531 2.860455
  C 4.423334 -0.121979 -0.511918
  C 4.921117 -1.495494 -0.809705
  C 5.068578 -1.943773 -2.178519
  C 4.197540 -1.557836 -3.304288
  C 3.041036 -0.595684 -3.039876
  C 2.179854 -0.454158 -4.294600
  O 5.971862 -2.816648 -2.496214
  H 2.337093 -1.317865 1.764797
  H 4.157883 -2.094739 -0.225188
  H 2.245628 -1.776761 0.022485
  H 2.800789 1.969990 0.369022
  H 4.144394 1.708255 1.470042
  H 2.622189 0.613455 3.096777
  H 1.266093 0.825133 1.976962
  H 2.917964 3.084954 3.205306
  H 1.296780 2.608851 3.701070
  H 1.559331 3.297265 2.101291
  H 4.913149 0.737899 -0.939795
  H 5.825019 -1.682947 -0.223801
  H 3.801594 -2.490102 -3.725459
  H 4.839486 -1.155251 -4.096122
  H 3.419956 0.391021 -2.762265
  H 2.415501 -0.965943 -2.224670
  H 2.764908 -0.071765 -5.127382
  H 1.359409 0.236429 -4.115059
  H 1.755671 -1.412251 -4.587245
  H 6.561987 -3.115837 -1.771307
 32
 34.720548
  C 2.492322 -1.123972 0.768091
  C 3.248094 -0.009564 0.452272
  C 3.136026 1.296257 1.214744
  C 2.197005 1.286509 2.415263
  C 2.138584 2.666933 3.065015
  C 4.238236 -0.106752 -0.514986
  C 4.864869 -1.434421 -0.827973
  C 5.115330 -1.825242 -2.201288
  C 4.277881 -1.485985 -3.359186
  C 3.025217 -0.647282 -3.151009
  C 2.237950 -0.553179 -4.457706
  O 6.115613 -2.589728 -2.495702
  H 1.952728 -1.186374 1.696176
  H 4.195382 -2.149840 -0.294813
  H 2.106234 -1.751065 -0.014646
  H 2.785422 2.050615 0.504171
  H 4.129542 1.612636 1.545541
  H 2.548497 0.562662 3.157837
  H 1.189866 0.999073 2.100336
  H 3.125566 2.977548 3.404611
  H 1.473090 2.654713 3.924807
  H 1.769437 3.410572 2.361899
  H 4.612183 0.756626 -1.037166
  H 5.741682 -1.581163 -0.176172
  H 3.991927 -2.441514 -3.819823
  H 4.924995 -1.010398 -4.110989
  H 3.284062 0.357741 -2.835041
  H 2.391199 -1.098885 -2.394957
  H 2.834480 -0.086451 -5.239000
  H 1.340442 0.045469 -4.316007
  H 1.933564 -1.539175 -4.803504
  H 6.704489 -2.843165 -1.751177
