 20
 0.000000
  H 1.405224 0.134920 0.386628
  C 2.475139 0.140018 0.399085
  C 3.241227 0.613797 1.578372
  C 2.445071 1.099206 2.786946
  H 3.098730 1.415018 3.573007
  C 3.096863 -0.322475 -0.752613
  C 4.472906 -0.413204 -0.978851
  C 5.132414 -0.867699 -2.111643
  C 4.618673 -1.388937 -3.410716
  H 3.569972 -1.467842 -3.607948
  O 6.457488 -0.870547 -2.119086
  H 3.897288 1.429656 1.253616
  H 3.897458 -0.199872 1.908184
  H 1.806291 0.298662 3.165430
  H 1.806160 1.939037 2.506526
  H 2.436796 -0.639606 -1.542199
  H 5.100515 -0.083792 -0.158214
  H 5.068655 -2.379864 -3.541239
  H 5.069011 -0.763340 -4.190016
  H 6.834017 -0.535875 -1.285013
 20
 0.000000
  H 1.436881 0.111494 0.328282
  C 2.536711 0.120644 0.350825
  C 3.290636 0.597125 1.536844
  C 2.482087 1.079682 2.738313
  H 3.127632 1.397804 3.530129
  C 3.132767 -0.326469 -0.762569
  C 4.444951 -0.410898 -0.973116
  C 5.081930 -0.848799 -2.064567
  C 4.595698 -1.373689 -3.372732
  H 3.551354 -1.460236 -3.588984
  O 6.343875 -0.833544 -2.026912
  H 3.946644 1.415316 1.217899
  H 3.946810 -0.214211 1.872468
  H 1.842829 0.276866 3.111138
  H 1.842702 1.917240 2.452233
  H 2.473043 -0.643698 -1.552402
  H 5.070282 -0.080882 -0.150984
  H 5.055203 -2.361296 -3.494994
  H 5.055544 -0.744768 -4.143762
  H 6.672319 -0.480419 -1.146854
 20
 0.000000
  H 1.466136 0.088159 0.270163
  C 2.599293 0.101946 0.304249
  C 3.339977 0.581303 1.497434
  C 2.518095 1.060723 2.691091
  H 3.154794 1.381313 3.489053
  C 3.171245 -0.330316 -0.772162
  C 4.419166 -0.409159 -0.968795
  C 5.033940 -0.831140 -2.020579
  C 4.575124 -1.359446 -3.337251
  H 3.535488 -1.453527 -3.572251
  O 6.231465 -0.799577 -1.942298
  H 3.995859 1.402019 1.184776
  H 3.996022 -0.227508 1.839347
  H 1.878386 0.255447 3.057786
  H 1.878263 1.895821 2.398880
  H 2.511539 -0.647551 -1.562008
  H 5.042871 -0.078713 -0.145602
  H 5.043884 -2.343698 -3.451166
  H 5.044210 -0.727168 -4.099927
  H 6.507012 -0.426619 -1.012820
 20
 0.000000
  H 1.492597 0.064890 0.212209
  C 2.662808 0.083974 0.259483
  C 3.389159 0.566369 1.460235
  C 2.553032 1.042358 2.645345
  H 3.180136 1.365563 3.449826
  C 3.212243 -0.334011 -0.781375
  C 4.395852 -0.407890 -0.965645
  C 4.988743 -0.814699 -1.979628
  C 4.556930 -1.346158 -3.304148
  H 3.522281 -1.447579 -3.557411
  O 6.120915 -0.768756 -1.865524
  H 4.044829 1.389799 1.154341
  H 4.044987 -0.239727 1.808912
  H 1.912913 0.234432 3.005440
  H 1.912794 1.874806 2.346534
  H 2.552270 -0.651168 -1.571029
  H 5.018614 -0.077192 -0.141838
  H 5.034578 -2.327062 -3.409733
  H 5.034887 -0.710528 -4.058486
  H 6.337766 -0.374878 -0.883911
 20
 0.000000
  H 1.515214 0.041595 0.154190
  C 2.727513 0.066791 0.216679
  C 3.438286 0.552398 1.425437
  C 2.586891 1.024616 2.601154
  H 3.203549 1.350602 3.412563
  C 3.256024 -0.337550 -0.790203
  C 4.375248 -0.407052 -0.963569
  C 4.946517 -0.799530 -1.941845
  C 4.541057 -1.333866 -3.273523
  H 3.511603 -1.442375 -3.544422
  O 6.012457 -0.741160 -1.796781
  H 4.093636 1.378760 1.126843
  H 4.093788 -0.250767 1.781415
  H 1.946419 0.213827 2.954118
  H 1.946304 1.854201 2.295211
  H 2.595458 -0.654535 -1.579430
  H 4.997883 -0.076317 -0.139681
  H 5.027166 -2.311460 -3.370876
  H 5.027458 -0.694924 -4.019624
  H 6.163527 -0.325094 -0.759872
 20
 0.000000
  H 1.531877 0.018584 0.096876
  C 2.792536 0.050811 0.176872
  C 3.486571 0.539770 1.393982
  C 2.619019 1.007888 2.559489
  H 3.224429 1.336789 3.378163
  C 3.302160 -0.340879 -0.798508
  C 4.358087 -0.406660 -0.962604
  C 4.908346 -0.786055 -1.908283
  C 4.527793 -1.322931 -3.246280
  H 3.503544 -1.438074 -3.533680
  O 5.908429 -0.717432 -1.737673
  H 4.141476 1.369257 1.103175
  H 4.141623 -0.260269 1.757748
  H 1.978269 0.194043 2.904839
  H 1.978161 1.834417 2.245932
  H 2.640604 -0.657577 -1.587022
  H 4.981616 -0.076154 -0.139300
  H 5.021710 -2.297360 -3.335761
  H 5.021983 -0.680822 -3.984503
  H 5.986327 -0.277923 -0.642343
 20
 0.000000
  H 1.541444 -0.004250 0.040004
  C 2.857837 0.036121 0.140276
  C 3.533902 0.528564 1.366071
  C 2.649280 0.992227 2.520483
  H 3.242591 1.324177 3.346754
  C 3.350631 -0.343989 -0.806268
  C 4.344604 -0.406640 -0.962566
  C 4.874481 -0.774299 -1.879002
  C 4.517062 -1.313380 -3.222484
  H 3.497901 -1.434628 -3.525065
  O 5.809371 -0.697555 -1.688158
  H 4.188215 1.361381 1.083560
  H 4.188355 -0.268146 1.738132
  H 2.008351 0.175123 2.857712
  H 2.008248 1.815497 2.198806
  H 2.687670 -0.660278 -1.593765
  H 4.970150 -0.076657 -0.140581
  H 5.018067 -2.284838 -3.304574
  H 5.018322 -0.668298 -3.953313
  H 5.805461 -0.233462 -0.531564
 20
 0.000000
  H 1.541448 -0.026839 -0.016259
  C 2.922893 0.023034 0.107672
  C 3.579727 0.519079 1.342446
  C 2.677146 0.977913 2.484832
  H 3.257480 1.313034 3.319008
  C 3.401218 -0.346845 -0.813395
  C 4.335328 -0.406983 -0.963433
  C 4.845664 -0.764572 -1.854774
  C 4.508964 -1.305504 -3.202857
  H 3.494563 -1.432172 -3.518917
  O 5.716775 -0.681847 -1.649028
  H 4.233276 1.355430 1.068740
  H 4.233410 -0.274097 1.723312
  H 2.036158 0.157345 2.813430
  H 2.036062 1.797720 2.154525
  H 2.736350 -0.662576 -1.599507
  H 4.964230 -0.077881 -0.143656
  H 5.016185 -2.274274 -3.278265
  H 5.016421 -0.657733 -3.927001
  H 5.621451 -0.191871 -0.427932
 20
 0.000000
  H 1.529672 -0.049143 -0.071811
  C 2.986979 0.011847 0.079801
  C 3.623377 0.511577 1.323763
  C 2.702062 0.965214 2.453203
  H 3.268574 1.303603 3.295526
  C 3.453444 -0.349400 -0.819776
  C 4.330623 -0.407649 -0.965103
  C 4.822456 -0.757111 -1.836194
  C 4.503427 -1.299531 -3.187971
  H 3.493238 -1.430790 -3.515439
  O 5.632002 -0.670487 -1.620729
  H 4.275973 1.351651 1.059332
  H 4.276098 -0.277876 1.713904
  H 2.061156 0.140992 2.772698
  H 2.061068 1.781367 2.113794
  H 2.786102 -0.664406 -1.604082
  H 4.964380 -0.079835 -0.148552
  H 5.015854 -2.265989 -3.257632
  H 5.016070 -0.649448 -3.906366
  H 5.434873 -0.153412 -0.332101
 20
 0.000000
  H 1.504102 -0.071110 -0.126524
  C 3.049164 0.002862 0.057414
  C 3.664071 0.506314 1.310654
  C 2.723432 0.954411 2.426299
  H 3.275375 1.296126 3.276914
  C 3.506581 -0.351581 -0.825223
  C 4.330641 -0.408558 -0.967377
  C 4.805175 -0.752081 -1.823668
  C 4.500177 -1.295624 -3.178229
  H 3.493430 -1.430508 -3.514699
  O 5.556173 -0.663507 -1.603340
  H 4.315507 1.350267 1.055891
  H 4.315625 -0.279261 1.710461
  H 2.082773 0.126376 2.736294
  H 2.082693 1.766751 2.077392
  H 2.836146 -0.665672 -1.607255
  H 4.970865 -0.082486 -0.155183
  H 5.016675 -2.260232 -3.243295
  H 5.016872 -0.643691 -3.892030
  H 5.246446 -0.118343 -0.244716
 20
 0.000000
  H 1.462432 -0.092702 -0.180302
  C 3.108340 -0.003602 0.041305
  C 3.700874 0.503559 1.303795
  C 2.740520 0.945810 2.404882
  H 3.277260 1.290870 3.263837
  C 3.559767 -0.353301 -0.829521
  C 4.335518 -0.409632 -0.970064
  C 4.794113 -0.749653 -1.817626
  C 4.498946 -1.293953 -3.174057
  H 3.494664 -1.431369 -3.516804
  O 5.490402 -0.660883 -1.596801
  H 4.350936 1.351513 1.059001
  H 4.351045 -0.278015 1.713570
  H 2.100290 0.113837 2.705065
  H 2.100218 1.754214 2.046166
  H 2.885593 -0.666278 -1.608783
  H 4.983883 -0.085794 -0.163450
  H 5.018266 -2.257258 -3.235887
  H 5.018445 -0.640718 -3.884625
  H 5.057401 -0.086785 -0.166076
 20
 0.000000
  H 1.400947 -0.113681 -0.232558
  C 3.163081 -0.007055 0.032696
  C 3.732783 0.503721 1.304204
  C 2.752724 0.939927 2.390235
  H 3.273911 1.288279 3.257398
  C 3.611854 -0.354441 -0.832377
  C 4.345491 -0.410878 -0.973177
  C 4.789548 -0.750243 -1.819103
  C 4.499041 -1.294897 -3.176396
  H 3.495941 -1.433514 -3.522107
  O 5.436023 -0.662844 -1.601687
  H 4.381271 1.355719 1.069488
  H 4.381371 -0.273810 1.724054
  H 2.113108 0.103968 2.680485
  H 2.113045 1.744346 2.021589
  H 2.933134 -0.666051 -1.608232
  H 5.003887 -0.089853 -0.173591
  H 5.019692 -2.257581 -3.236688
  H 5.019854 -0.641043 -3.885430
  H 4.870130 -0.058641 -0.095944
 20
 0.000000
  H 1.371839 -0.121935 -0.253115
  C 3.178321 -0.008210 0.029819
  C 3.739244 0.503913 1.304686
  C 2.751715 0.937774 2.384875
  H 3.266912 1.287360 3.255117
  C 3.627895 -0.355453 -0.834898
  C 4.349427 -0.411993 -0.975954
  C 4.789615 -0.751915 -1.823266
  C 4.500100 -1.296645 -3.180742
  H 3.497253 -1.435518 -3.527083
  O 5.420640 -0.665156 -1.607440
  H 4.387083 1.357455 1.073820
  H 4.387178 -0.272074 1.728385
  H 2.112380 0.100291 2.671328
  H 2.112321 1.740669 2.012432
  H 2.947992 -0.666704 -1.609863
  H 5.011165 -0.091921 -0.178746
  H 5.021035 -2.259195 -3.240705
  H 5.021192 -0.642658 -3.889448
  H 4.806703 -0.050103 -0.074665
 20
 0.000000
  H 1.214878 -0.159730 -0.347260
  C 3.269439 -0.005697 0.036062
  C 3.787360 0.512662 1.326486
  C 2.764122 0.934864 2.377643
  H 3.249900 1.290240 3.262322
  C 3.720671 -0.354170 -0.831729
  C 4.377177 -0.412420 -0.977036
  C 4.791294 -0.757553 -1.837324
  C 4.497033 -1.301942 -3.193914
  H 3.492980 -1.439620 -3.537225
  O 5.340062 -0.676827 -1.636510
  H 4.431654 1.373690 1.114273
  H 4.431732 -0.255841 1.768832
  H 2.126538 0.089983 2.645661
  H 2.126494 1.730364 1.986773
  H 3.029757 -0.662033 -1.598259
  H 5.062577 -0.099328 -0.197249
  H 5.016634 -2.265115 -3.255441
  H 5.016763 -0.648582 -3.904195
  H 4.446591 -0.008888 0.028034
