9

H 5.746342544333809 -1.123342498647233 -2.017244018653248
C 6.816227 -1.13048 -2.031255
C 7.534752 -1.642156 -3.035768
C 9.024695 -1.661962 -3.074644
H 7.322807 -0.696169 -1.178628
H 7.035816 -2.078427 -3.892225
H 9.461483 -1.209128 -2.18566
H 9.382918 -1.116336 -3.949046
H 9.382918 -2.690058 -3.147419
