 9
 0.000000
  H 5.750530 -1.127832 -2.026057
  C 6.823557 -1.133399 -2.036985
  C 7.532260 -1.638236 -3.028072
  C 9.023624 -1.660880 -3.072521
  H 7.324439 -0.699015 -1.184216
  H 7.031774 -2.073830 -3.883202
  H 9.462274 -1.209280 -2.185958
  H 9.379749 -1.116747 -3.947837
  H 9.379750 -2.688840 -3.147041
 9
 2.028444
  H 5.792245 -1.094085 -1.959810
  C 6.860300 -1.145149 -2.060047
  C 7.502802 -1.666577 -3.083698
  C 8.991060 -1.658159 -3.067169
  H 7.476646 -0.741807 -1.268218
  H 7.000532 -2.099940 -3.934452
  H 9.285581 -1.177782 -2.124098
  H 9.399095 -1.099508 -3.906379
  H 9.399065 -2.665402 -3.108705
 9
 7.402787
  H 5.826892 -1.067716 -1.908009
  C 6.882193 -1.153447 -2.076366
  C 7.481682 -1.686488 -3.122823
  C 8.971457 -1.653949 -3.058963
  H 7.611962 -0.781217 -1.345624
  H 6.979044 -2.117162 -3.968295
  H 9.136977 -1.158247 -2.085823
  H 9.410333 -1.078797 -3.866484
  H 9.410411 -2.645448 -3.068540
 9
 16.197645
  H 5.864650 -1.046885 -1.867115
  C 6.899639 -1.157894 -2.085119
  C 7.467854 -1.698380 -3.146216
  C 8.955733 -1.649097 -3.049521
  H 7.716609 -0.818830 -1.419525
  H 6.961761 -2.129773 -3.993094
  H 9.016060 -1.140985 -2.052056
  H 9.417777 -1.060045 -3.833367
  H 9.418120 -2.629944 -3.034009
 9
 27.950858
  H 5.874358 -1.030036 -1.831284
  C 6.908055 -1.159032 -2.088814
  C 7.459719 -1.703031 -3.160001
  C 8.947046 -1.640926 -3.040625
  H 7.807074 -0.849240 -1.483738
  H 6.955909 -2.134432 -4.006489
  H 8.923510 -1.127572 -2.033805
  H 9.418753 -1.046066 -3.800932
  H 9.433880 -2.627910 -3.007612
 9
 41.071343
  H 5.886460 -1.019446 -1.815577
  C 6.911980 -1.160611 -2.090509
  C 7.456081 -1.708064 -3.163056
  C 8.944704 -1.643890 -3.037550
  H 7.874167 -0.870074 -1.517917
  H 6.953048 -2.139363 -4.010235
  H 8.854246 -1.114739 -1.998242
  H 9.430389 -1.033846 -3.797567
  H 9.429850 -2.614167 -2.992181
 9
 54.572715
  H 5.884649 -1.019015 -1.808461
  C 6.909602 -1.159921 -2.089023
  C 7.456241 -1.705335 -3.161596
  C 8.944220 -1.644220 -3.039290
  H 7.931679 -0.878125 -1.537427
  H 6.953931 -2.137416 -4.009426
  H 8.808027 -1.097051 -1.966652
  H 9.433794 -1.032343 -3.791683
  H 9.432875 -2.613371 -2.986026
 9
 66.913895
  H 5.874193 -1.022950 -1.813915
  C 6.902476 -1.158703 -2.086605
  C 7.458237 -1.701372 -3.155100
  C 8.945340 -1.646704 -3.045142
  H 7.980217 -0.878201 -1.538179
  H 6.956582 -2.134261 -4.003390
  H 8.784702 -1.078645 -1.930878
  H 9.435925 -1.032269 -3.794071
  H 9.433377 -2.615580 -2.986472
 9
 77.581326
  H 5.858032 -1.027102 -1.827408
  C 6.890689 -1.158709 -2.086020
  C 7.462056 -1.697525 -3.146076
  C 8.947269 -1.652940 -3.055513
  H 8.021981 -0.869595 -1.520564
  H 6.961827 -2.131690 -3.995310
  H 8.779358 -1.057371 -1.887755
  H 9.433901 -1.033236 -3.801934
  H 9.434713 -2.621425 -2.994728
 9
 88.810470
  H 5.832148 -1.043115 -1.845433
  C 6.870029 -1.162454 -2.088782
  C 7.468215 -1.686696 -3.137429
  C 8.949600 -1.664531 -3.075445
  H 8.068107 -0.844293 -1.481365
  H 6.970726 -2.125918 -3.987186
  H 8.788233 -1.024115 -1.827534
  H 9.435328 -1.041361 -3.818998
  H 9.430355 -2.635070 -3.010127
 9
 99.409535
  H 5.797998 -1.050330 -1.879919
  C 6.841587 -1.164847 -2.096742
  C 7.477465 -1.682846 -3.119035
  C 8.949807 -1.677433 -3.102242
  H 8.121457 -0.816943 -1.418099
  H 6.985726 -2.125477 -3.972333
  H 8.813158 -0.988798 -1.750496
  H 9.427236 -1.046094 -3.842838
  H 9.428990 -2.648097 -3.036454
 9
 108.407986
  H 5.757479 -1.071582 -1.921272
  C 6.807792 -1.169980 -2.107704
  C 7.488819 -1.672474 -3.099936
  C 8.948291 -1.695113 -3.135916
  H 8.181923 -0.771041 -1.329022
  H 7.005190 -2.119494 -3.958786
  H 8.857430 -0.939607 -1.653828
  H 9.420446 -1.057784 -3.873654
  H 9.420486 -2.667530 -3.067706
 9
 115.212401
  H 5.713876 -1.091940 -1.973493
  C 6.770422 -1.174305 -2.120917
  C 7.501879 -1.664785 -3.073575
  C 8.944986 -1.713738 -3.172946
  H 8.250952 -0.716331 -1.215455
  H 7.031131 -2.114411 -3.941933
  H 8.920701 -0.883093 -1.540373
  H 9.408095 -1.068608 -3.907643
  H 9.413053 -2.686703 -3.102336
 9
 120.056011
  H 5.679172 -1.115593 -2.022041
  C 6.740386 -1.178154 -2.132740
  C 7.515712 -1.653923 -3.050128
  C 8.941706 -1.728585 -3.201620
  H 8.326957 -0.651831 -1.087117
  H 7.061047 -2.107670 -3.928431
  H 8.996711 -0.818815 -1.415136
  H 9.396651 -1.080041 -3.936442
  H 9.403234 -2.703386 -3.131202
