 28
 0.000000
  C 0.969360 0.139795 0.398479
  C 2.443068 0.141506 0.402245
  C 3.224164 0.609172 1.566462
  C 2.451663 1.099360 2.787326
  C 3.411116 1.541375 3.888142
  C 3.059745 -0.324056 -0.757118
  C 4.442130 -0.411094 -0.974635
  C 5.100132 -0.860005 -2.093185
  C 4.628843 -1.379227 -3.386622
  C 3.146456 -1.505752 -3.701956
  H 3.020636 -1.907158 -4.701990
  H 6.181691 -0.845750 -2.058059
  H 0.533415 0.509464 1.319023
  H 0.600975 -0.872176 0.224101
  H 0.600614 0.749913 -0.427356
  H 3.884659 1.417564 1.231622
  H 3.884820 -0.206145 1.883696
  H 1.815260 0.303222 3.177819
  H 1.815198 1.944460 2.518847
  H 4.046964 0.718011 4.205847
  H 2.855067 1.889407 4.755110
  H 4.046906 2.355852 3.548233
  H 2.398539 -0.641292 -1.546561
  H 5.072015 -0.082889 -0.157413
  H 5.100582 -2.363449 -3.508621
  H 5.100726 -0.752696 -4.155340
  H 2.658224 -0.534489 -3.667014
  H 2.658157 -2.183290 -3.005198
 28
 13.109197
  C 0.918638 0.164813 0.461299
  C 2.425506 0.107280 0.317342
  C 3.246406 0.571689 1.472944
  C 2.514232 1.074216 2.724516
  C 3.527683 1.500196 3.785436
  C 2.827631 -0.366155 -0.861585
  C 4.185472 -0.382070 -0.901930
  C 4.995955 -0.803896 -1.953031
  C 4.682759 -1.335553 -3.277669
  C 3.245848 -1.514617 -3.724550
  H 3.234564 -1.919230 -4.733028
  H 6.063060 -0.735275 -1.782234
  H 0.576810 0.545812 1.409319
  H 0.516219 -0.839348 0.308452
  H 0.515863 0.783695 -0.343888
  H 3.903902 1.386328 1.141948
  H 3.904590 -0.245107 1.797098
  H 1.885977 0.287139 3.143275
  H 1.885895 1.932313 2.482909
  H 4.162274 0.666567 4.077298
  H 3.014926 1.857449 4.675212
  H 4.162310 2.304150 3.419705
  H 2.159471 -0.679065 -1.640675
  H 4.748502 -0.039830 -0.049784
  H 5.212663 -2.293634 -3.359681
  H 5.213167 -0.700238 -3.999251
  H 2.718191 -0.564276 -3.744601
  H 2.717953 -2.215127 -3.082229
 28
 46.193871
  C 0.871879 0.183980 0.509115
  C 2.463512 0.082131 0.254889
  C 3.272296 0.552473 1.422751
  C 2.558756 1.056421 2.682876
  C 3.598254 1.472617 3.715178
  C 2.677673 -0.400701 -0.948485
  C 4.030513 -0.367844 -0.863846
  C 4.933247 -0.768255 -1.860065
  C 4.719526 -1.307465 -3.205688
  C 3.314968 -1.519966 -3.740708
  H 3.372576 -1.923121 -4.747014
  H 5.984986 -0.671971 -1.616931
  H 0.574740 0.571862 1.473144
  H 0.457455 -0.817913 0.376646
  H 0.456588 0.814196 -0.280556
  H 3.919030 1.380789 1.106559
  H 3.924143 -0.260250 1.767527
  H 1.939479 0.275174 3.117107
  H 1.936172 1.918720 2.458773
  H 4.233125 0.634224 3.993081
  H 3.107895 1.833082 4.616233
  H 4.229696 2.272990 3.335466
  H 1.988805 -0.703835 -1.705197
  H 4.567673 -0.026024 -0.009785
  H 5.279662 -2.253095 -3.257908
  H 5.282065 -0.660761 -3.896344
  H 2.768847 -0.584178 -3.791682
  H 2.766816 -2.230844 -3.131994
 28
 89.032392
  C 0.844271 0.199403 0.548905
  C 2.532065 0.063072 0.203665
  C 3.295447 0.537925 1.387656
  C 2.579658 1.043310 2.646837
  C 3.625897 1.453341 3.671643
  C 2.593812 -0.423348 -1.013068
  C 3.947879 -0.354471 -0.836141
  C 4.897824 -0.746603 -1.811844
  C 4.733446 -1.286590 -3.155441
  C 3.350350 -1.519282 -3.731107
  H 3.443855 -1.921803 -4.733595
  H 5.944042 -0.634567 -1.535986
  H 0.576011 0.588940 1.519049
  H 0.440749 -0.795561 0.426046
  H 0.440019 0.832716 -0.228527
  H 3.942832 1.371818 1.082822
  H 3.941684 -0.276646 1.743782
  H 1.962040 0.267934 3.083486
  H 1.964424 1.905637 2.425923
  H 4.256607 0.612512 3.946716
  H 3.140581 1.816162 4.574715
  H 4.258755 2.249953 3.290021
  H 1.889641 -0.717567 -1.746981
  H 4.513585 -0.016514 0.000181
  H 5.308988 -2.222870 -3.191743
  H 5.307795 -0.635062 -3.830519
  H 2.793275 -0.593825 -3.799263
  H 2.794868 -2.235536 -3.139767
 28
 117.802809
  C 0.781502 0.189002 0.517576
  C 2.763221 0.076920 0.162874
  C 3.374874 0.571498 1.435413
  C 2.567458 1.032773 2.648840
  C 3.550135 1.462275 3.747970
  C 2.629911 -0.378683 -1.033970
  C 4.092790 -0.341871 -0.861580
  C 4.931293 -0.748571 -1.840788
  C 4.712211 -1.314010 -3.201071
  C 3.283628 -1.545633 -3.719643
  H 3.341192 -1.967893 -4.723639
  H 5.990317 -0.646593 -1.625491
  H 0.603991 0.579124 1.485155
  H 0.457418 -0.830001 0.402647
  H 0.464576 0.848363 -0.268805
  H 4.010465 1.426020 1.183067
  H 4.011833 -0.228464 1.818763
  H 1.951608 0.222173 3.045917
  H 1.940177 1.896728 2.412223
  H 4.191829 0.640733 4.047490
  H 3.005760 1.794631 4.623465
  H 4.176332 2.282342 3.416318
  H 1.913926 -0.656946 -1.747370
  H 4.717319 0.013456 -0.059406
  H 5.247052 -2.274630 -3.228466
  H 5.233900 -0.659568 -3.910630
  H 2.734388 -0.604496 -3.797561
  H 2.744711 -2.262403 -3.095698
 28
 126.029867
  C 0.539986 0.209971 0.592151
  C 3.011669 0.087394 0.179824
  C 3.537315 0.597246 1.444479
  C 2.601871 1.019557 2.591138
  C 3.453920 1.472757 3.772061
  C 2.729403 -0.368729 -0.969754
  C 4.282024 -0.362092 -0.879932
  C 5.025503 -0.799903 -1.907357
  C 4.701839 -1.347100 -3.261204
  C 3.251147 -1.520021 -3.691151
  H 3.231026 -1.929860 -4.703130
  H 6.096686 -0.719216 -1.776742
  H 0.330198 0.609670 1.557344
  H 0.314398 -0.830920 0.465314
  H 0.301312 0.854156 -0.230831
  H 4.154443 1.472580 1.232124
  H 4.150900 -0.199066 1.876743
  H 1.981897 0.186968 2.923999
  H 1.968970 1.853082 2.286595
  H 4.092958 0.667503 4.127929
  H 2.813818 1.778575 4.595007
  H 4.081971 2.319871 3.504799
  H 1.987945 -0.661697 -1.663784
  H 4.957897 -0.016886 -0.112199
  H 5.211467 -2.310543 -3.331224
  H 5.205590 -0.694476 -3.983423
  H 2.732296 -0.564624 -3.713924
  H 2.728255 -2.220612 -3.041261
 28
 124.667439
  C 0.357351 0.188364 0.632351
  C 3.216784 0.085775 0.200651
  C 3.681613 0.597182 1.468303
  C 2.637776 0.998585 2.522776
  C 3.368846 1.487458 3.771835
  C 2.820838 -0.312717 -0.913640
  C 4.415630 -0.366016 -0.886873
  C 5.082833 -0.814064 -1.954528
  C 4.678864 -1.358814 -3.289126
  C 3.207051 -1.486234 -3.651331
  H 3.131288 -1.909541 -4.651873
  H 6.162332 -0.809907 -1.860261
  H 0.120365 0.573064 1.600451
  H 0.183320 -0.854973 0.474343
  H 0.167826 0.840540 -0.193818
  H 4.301347 1.480443 1.287173
  H 4.314287 -0.162712 1.936531
  H 2.029310 0.138951 2.805096
  H 2.002550 1.802187 2.153095
  H 4.003055 0.706658 4.187361
  H 2.649028 1.773342 4.535695
  H 3.987135 2.356734 3.553260
  H 2.054207 -0.561597 -1.604282
  H 5.129641 -0.040956 -0.142424
  H 5.140820 -2.348639 -3.357221
  H 5.177818 -0.735796 -4.037989
  H 2.723066 -0.515233 -3.677859
  H 2.689059 -2.157348 -2.973395
 28
 121.681951
  C 0.166757 0.187483 0.623161
  C 3.415968 0.121907 0.209415
  C 3.827289 0.616078 1.500705
  C 2.691793 0.986243 2.465425
  C 3.288014 1.472556 3.782890
  C 2.896051 -0.270439 -0.859274
  C 4.531786 -0.345468 -0.896768
  C 5.123605 -0.817170 -1.998229
  C 4.643320 -1.382484 -3.298279
  C 3.154230 -1.484509 -3.587749
  H 3.029458 -1.902442 -4.584285
  H 6.205739 -0.832822 -1.963934
  H -0.083686 0.567990 1.596859
  H 0.058834 -0.863151 0.454590
  H 0.042969 0.842994 -0.209957
  H 4.457270 1.499301 1.362331
  H 4.464698 -0.124506 1.990780
  H 2.091737 0.103218 2.672004
  H 2.062353 1.766815 2.042467
  H 3.902939 0.705294 4.241959
  H 2.495258 1.724449 4.478702
  H 3.894839 2.360245 3.635423
  H 2.124329 -0.520526 -1.538134
  H 5.285740 -0.021191 -0.186029
  H 5.096362 -2.370939 -3.392431
  H 5.096151 -0.753878 -4.070589
  H 2.682367 -0.505929 -3.593480
  H 2.659010 -2.159784 -2.895550
 28
 121.647257
  C -0.018838 0.207721 0.662412
  C 3.561170 0.127508 0.207131
  C 3.930007 0.607656 1.517073
  C 2.731703 0.952676 2.408443
  C 3.221563 1.455662 3.758464
  C 2.947952 -0.225287 -0.825758
  C 4.614751 -0.332233 -0.901781
  C 5.158588 -0.806423 -2.024671
  C 4.629933 -1.372046 -3.305726
  C 3.129371 -1.495133 -3.538394
  H 2.972404 -1.915550 -4.532493
  H 6.243536 -0.841624 -2.026910
  H -0.237208 0.573024 1.643732
  H -0.104988 -0.840122 0.479469
  H -0.109170 0.880441 -0.163042
  H 4.563417 1.494778 1.412869
  H 4.569055 -0.118893 2.024420
  H 2.124500 0.060317 2.564204
  H 2.118834 1.717500 1.936153
  H 3.818700 0.698994 4.264556
  H 2.373363 1.696377 4.397151
  H 3.823255 2.357284 3.647871
  H 2.172225 -0.456100 -1.503514
  H 5.402385 -0.023242 -0.214365
  H 5.084011 -2.362283 -3.403747
  H 5.053121 -0.753301 -4.103520
  H 2.644399 -0.523861 -3.527033
  H 2.669909 -2.177463 -2.829884
 28
 106.748010
  C -0.148400 0.117031 0.583897
  C 3.786354 0.205314 0.462782
  C 4.105424 0.707745 1.735252
  C 2.739847 0.961401 2.438695
  C 2.993926 1.500767 3.838862
  C 3.432477 -0.149904 -0.707247
  C 4.878982 -0.416267 -1.093886
  C 5.240061 -0.934571 -2.261210
  C 4.496474 -1.442647 -3.446817
  C 2.972319 -1.430871 -3.472481
  H 2.641702 -1.869882 -4.411425
  H 6.311155 -1.013115 -2.408409
  H -0.435385 0.463294 1.552576
  H -0.102252 -0.932901 0.394864
  H -0.116695 0.806367 -0.231478
  H 4.663338 1.646414 1.675748
  H 4.685632 -0.006950 2.325180
  H 2.175103 0.031891 2.493132
  H 2.157747 1.679279 1.862088
  H 3.557719 0.790928 4.437623
  H 2.043706 1.681178 4.333562
  H 3.541686 2.438089 3.805282
  H 2.642345 -0.318779 -1.396955
  H 5.687384 -0.149507 -0.426912
  H 4.840971 -2.471934 -3.594760
  H 4.866255 -0.878188 -4.308722
  H 2.580018 -0.417617 -3.443855
  H 2.554842 -2.036049 -2.671583
