 29
 0.000000
  C 0.966735 0.139821 0.399685
  C 2.442677 0.138078 0.394954
  C 3.231364 0.606486 1.560246
  C 2.459337 1.097314 2.781731
  C 3.416227 1.540382 3.884196
  C 3.058078 -0.326743 -0.762058
  C 4.436094 -0.409947 -0.969873
  C 5.118734 -0.860797 -2.094182
  C 4.625695 -1.383520 -3.397493
  C 3.136951 -1.501621 -3.692355
  H 2.987801 -1.900537 -4.687064
  O 6.441168 -0.855599 -2.081781
  H 0.534869 0.510416 1.321833
  H 0.594886 -0.871725 0.231737
  H 0.594613 0.753687 -0.421539
  H 3.888056 1.417155 1.224960
  H 3.888212 -0.210636 1.879153
  H 1.822227 0.301397 3.171746
  H 1.822162 1.941759 2.512573
  H 4.051979 0.717495 4.203700
  H 2.857232 1.888051 4.749493
  H 4.051902 2.355582 3.545412
  H 2.400784 -0.644455 -1.552849
  H 5.049556 -0.076375 -0.138830
  H 5.084428 -2.370920 -3.521923
  H 5.084652 -0.755937 -4.169774
  H 2.658813 -0.525579 -3.644863
  H 2.658631 -2.174276 -2.983647
  H 6.804278 -0.518741 -1.241015
 29
 2.753093
  C 0.900820 0.043006 0.484979
  C 2.374789 0.050976 0.439201
  C 3.193828 0.577151 1.553750
  C 2.456650 1.156105 2.756195
  C 3.447542 1.616993 3.819487
  C 2.974113 -0.465145 -0.706197
  C 4.344849 -0.571123 -0.909145
  C 5.076546 -0.940670 -2.037300
  C 4.658721 -1.325119 -3.413970
  C 3.172190 -1.382770 -3.733864
  H 3.040196 -1.677790 -4.769270
  O 6.383333 -0.981167 -1.917799
  H 0.496709 0.470112 1.396891
  H 0.534135 -0.980720 0.378129
  H 0.500004 0.595515 -0.365578
  H 3.861367 1.347484 1.153556
  H 3.840698 -0.230036 1.906438
  H 1.834426 0.373985 3.203186
  H 1.811921 1.982502 2.467672
  H 4.087157 0.797008 4.135732
  H 2.917362 1.986009 4.694694
  H 4.076433 2.423609 3.445273
  H 2.314344 -0.803692 -1.485167
  H 5.054172 -0.325449 -0.133341
  H 5.102096 -2.307866 -3.604284
  H 5.147299 -0.618843 -4.092259
  H 2.707769 -0.410527 -3.596348
  H 2.666620 -2.110391 -3.106190
  H 6.890065 -0.654484 -1.152282
 29
 12.237480
  C 0.922442 0.070245 0.464993
  C 2.398632 0.041773 0.417765
  C 3.236522 0.578305 1.514344
  C 2.512214 1.174895 2.718449
  C 3.514672 1.720542 3.729226
  C 2.986873 -0.522638 -0.702456
  C 4.349479 -0.547097 -0.940831
  C 5.102664 -0.888340 -2.073263
  C 4.726521 -1.196426 -3.478286
  C 3.238191 -1.245990 -3.796525
  H 3.099544 -1.493067 -4.843216
  O 6.397716 -0.908443 -1.897006
  H 0.526822 0.533233 1.364297
  H 0.540598 -0.952869 0.415292
  H 0.528601 0.579337 -0.417162
  H 3.852832 1.381315 1.096306
  H 3.914245 -0.210580 1.847024
  H 1.845773 0.458721 3.199233
  H 1.901687 2.003267 2.353584
  H 4.133900 0.925116 4.139997
  H 3.000564 2.208195 4.554412
  H 4.172383 2.448285 3.255401
  H 2.328418 -0.978952 -1.431322
  H 5.136581 -0.341085 -0.237294
  H 5.151179 -2.186987 -3.679416
  H 5.241325 -0.495672 -4.138167
  H 2.758672 -0.290095 -3.591170
  H 2.751225 -2.014003 -3.207218
  H 7.010714 -0.689006 -1.185498
 29
 27.636299
  C 0.839423 -0.071483 0.575882
  C 2.312008 -0.082753 0.489159
  C 3.167608 0.466738 1.555647
  C 2.477397 1.185316 2.720521
  C 3.503572 1.806495 3.658902
  C 2.886476 -0.637145 -0.655629
  C 4.255583 -0.737882 -0.867729
  C 5.043497 -0.988953 -2.007952
  C 4.737689 -1.139367 -3.455247
  C 3.252347 -1.148079 -3.786550
  H 3.118885 -1.270481 -4.854091
  O 6.316184 -1.115703 -1.725376
  H 0.466947 0.424851 1.463576
  H 0.473915 -1.102908 0.585027
  H 0.408821 0.392975 -0.308562
  H 3.829397 1.218719 1.102571
  H 3.827117 -0.311700 1.955641
  H 1.793828 0.549829 3.283809
  H 1.868296 2.006384 2.315915
  H 4.139544 1.040885 4.103005
  H 3.004566 2.334201 4.470150
  H 4.137767 2.517356 3.129655
  H 2.217216 -1.059021 -1.393751
  H 5.097755 -0.639512 -0.195206
  H 5.193556 -2.070916 -3.780996
  H 5.202810 -0.305151 -3.979558
  H 2.782181 -0.215711 -3.491961
  H 2.749262 -1.973536 -3.285282
  H 7.068231 -1.054331 -1.122024
 29
 48.172767
  C 0.837786 0.038387 0.554969
  C 2.309167 0.016964 0.479079
  C 3.166040 0.594334 1.520305
  C 2.469881 1.254646 2.724290
  C 3.484745 1.711215 3.750294
  C 2.886371 -0.588818 -0.615593
  C 4.265738 -0.657722 -0.840232
  C 5.006069 -0.966083 -2.014768
  C 4.724689 -1.237926 -3.450737
  C 3.254199 -1.245672 -3.796359
  H 3.165757 -1.448648 -4.847251
  O 6.275791 -0.997968 -1.728810
  H 0.455511 0.518327 1.441892
  H 0.462379 -1.008192 0.527064
  H 0.411263 0.500733 -0.324580
  H 3.860732 1.300770 1.049699
  H 3.771253 -0.226593 1.931886
  H 1.848890 0.504100 3.205548
  H 1.823577 2.086287 2.410671
  H 4.090550 0.873416 4.074793
  H 2.981820 2.128636 4.620267
  H 4.133612 2.478004 3.352599
  H 2.239144 -1.027343 -1.358583
  H 5.247879 -0.626428 -0.325099
  H 5.166282 -2.205221 -3.718523
  H 5.284860 -0.521313 -4.049790
  H 2.790230 -0.283505 -3.610076
  H 2.704228 -2.033542 -3.264432
  H 7.106342 -0.923693 -1.227833
 29
 92.201098
  C 0.708373 -0.016032 0.685657
  C 2.179679 -0.056292 0.505393
  C 3.121241 0.527390 1.504822
  C 2.518877 1.246681 2.708661
  C 3.624819 1.785346 3.612136
  C 2.682912 -0.667220 -0.613289
  C 4.034414 -0.753039 -0.932636
  C 4.843453 -0.977777 -1.957447
  C 4.799171 -1.177946 -3.420271
  C 3.371665 -1.207971 -3.956353
  H 3.390725 -1.372434 -5.029893
  O 6.197914 -1.001673 -1.419302
  H 0.408918 0.505103 1.587237
  H 0.315312 -1.032057 0.724908
  H 0.237434 0.470728 -0.169076
  H 3.769283 1.230672 0.969457
  H 3.765566 -0.271961 1.877219
  H 1.895379 0.563881 3.287863
  H 1.896013 2.081886 2.379127
  H 4.259919 0.974425 3.964058
  H 3.196766 2.280524 4.480624
  H 4.243128 2.509745 3.087749
  H 1.979799 -1.156425 -1.283049
  H 5.473431 -0.707897 -0.416163
  H 5.297855 -2.128851 -3.627966
  H 5.372809 -0.394707 -3.924012
  H 2.866277 -0.263704 -3.771991
  H 2.807308 -2.014155 -3.496551
  H 7.049128 -0.987575 -0.929938
 29
 89.677161
  C 0.644427 -0.014268 0.703474
  C 2.118491 -0.057480 0.500113
  C 3.078081 0.518137 1.493216
  C 2.496483 1.231922 2.710141
  C 3.617801 1.761926 3.600700
  C 2.602931 -0.658366 -0.623438
  C 3.946496 -0.747660 -0.964348
  C 4.760639 -0.959162 -1.950412
  C 4.768982 -1.158818 -3.412238
  C 3.358701 -1.199704 -3.988366
  H 3.412592 -1.365887 -5.062259
  O 6.181041 -0.969863 -1.357513
  H 0.361809 0.499232 1.613228
  H 0.247368 -1.028167 0.740374
  H 0.163272 0.481859 -0.139375
  H 3.719731 1.222972 0.955757
  H 3.728583 -0.284567 1.853007
  H 1.880598 0.546167 3.296311
  H 1.871357 2.069246 2.396245
  H 4.252281 0.946682 3.937924
  H 3.204197 2.251682 4.478933
  H 4.231794 2.486517 3.071958
  H 1.892085 -1.142911 -1.289227
  H 5.550504 -0.730184 -0.460842
  H 5.279903 -2.106467 -3.601479
  H 5.351876 -0.363738 -3.896158
  H 2.840737 -0.258292 -3.825974
  H 2.786611 -2.011082 -3.546528
  H 7.020486 -1.030423 -0.813935
 29
 79.551494
  C 0.651149 -0.008697 0.832480
  C 2.097428 -0.054306 0.543278
  C 3.119934 0.535461 1.461946
  C 2.612880 1.267394 2.701298
  C 3.785822 1.811025 3.515105
  C 2.520726 -0.677038 -0.603641
  C 3.841167 -0.776759 -1.032170
  C 4.681856 -0.970347 -1.970007
  C 4.874510 -1.171548 -3.399052
  C 3.538111 -1.253263 -4.133490
  H 3.716554 -1.422057 -5.190977
  O 6.279542 -0.964547 -1.212046
  H 0.424973 0.522637 1.749132
  H 0.256381 -1.021362 0.911232
  H 0.118034 0.470498 0.010460
  H 3.730840 1.232158 0.874854
  H 3.789223 -0.260784 1.791785
  H 2.032691 0.594342 3.332978
  H 1.970427 2.102519 2.411915
  H 4.443497 1.001315 3.825032
  H 3.425977 2.316845 4.407876
  H 4.363595 2.528363 2.938177
  H 1.778047 -1.172294 -1.220899
  H 5.664317 -0.719765 -0.431278
  H 5.425917 -2.111005 -3.519880
  H 5.486108 -0.369092 -3.822138
  H 2.980831 -0.327643 -4.030078
  H 2.941856 -2.081066 -3.755730
  H 7.116552 -0.915696 -0.675666
 29
 66.390498
  C 0.547605 -0.016429 0.931015
  C 1.978661 -0.060542 0.574345
  C 3.034316 0.533779 1.433034
  C 2.587062 1.276553 2.687961
  C 3.794880 1.829341 3.439258
  C 2.345366 -0.702934 -0.595151
  C 3.624846 -0.822598 -1.091797
  C 4.462168 -0.992860 -1.995446
  C 4.817129 -1.173649 -3.377451
  C 3.555412 -1.242228 -4.242137
  H 3.848087 -1.393011 -5.277021
  O 6.228003 -1.038452 -1.023251
  H 0.362302 0.523721 1.851943
  H 0.157621 -1.029250 1.037699
  H -0.022114 0.455817 0.129518
  H 3.616134 1.220863 0.806694
  H 3.719824 -0.263508 1.739725
  H 2.037710 0.607792 3.352335
  H 1.929965 2.107087 2.420852
  H 4.471704 1.028424 3.728808
  H 3.475717 2.344138 4.342036
  H 4.342433 2.540975 2.825705
  H 1.571987 -1.192567 -1.177955
  H 5.593948 -0.783095 -0.333477
  H 5.380550 -2.108407 -3.455277
  H 5.466421 -0.362331 -3.713972
  H 2.997190 -0.312441 -4.183078
  H 2.919093 -2.069037 -3.941045
  H 7.054811 -0.878547 -0.541150
 29
 56.139720
  C 0.549682 0.001345 1.043815
  C 1.953028 -0.053691 0.606305
  C 3.061804 0.529168 1.394994
  C 2.707148 1.278293 2.674992
  C 3.967563 1.814721 3.347759
  C 2.239172 -0.695079 -0.589943
  C 3.477878 -0.810335 -1.175667
  C 4.345958 -0.959211 -2.050307
  C 4.910585 -1.120111 -3.351594
  C 3.810151 -1.228140 -4.409364
  H 4.269283 -1.375576 -5.382981
  O 6.197662 -0.997483 -0.885969
  H 0.417902 0.536721 1.976415
  H 0.158211 -1.010580 1.161806
  H -0.062634 0.473243 0.273818
  H 3.618922 1.203211 0.732689
  H 3.757953 -0.276649 1.653755
  H 2.191919 0.617304 3.373987
  H 2.047073 2.117812 2.448534
  H 4.649672 1.005265 3.598062
  H 3.712738 2.335059 4.267515
  H 4.486762 2.516717 2.699175
  H 1.430969 -1.183572 -1.121759
  H 5.499051 -0.761270 -0.249944
  H 5.504643 -2.040516 -3.337170
  H 5.600585 -0.303095 -3.578224
  H 3.220561 -0.316411 -4.443030
  H 3.153217 -2.069835 -4.207727
  H 7.071555 -0.755389 -0.229920
 29
 45.714762
  C 0.433793 -0.004198 1.213328
  C 1.787300 -0.067486 0.643693
  C 2.974193 0.480258 1.335194
  C 2.750408 1.213430 2.653337
  C 4.072732 1.724015 3.217425
  C 1.937121 -0.678889 -0.593472
  C 3.101436 -0.799396 -1.310289
  C 3.998727 -0.911048 -2.136492
  C 4.835403 -1.060427 -3.269467
  C 4.022508 -1.245848 -4.549097
  H 4.700005 -1.385562 -5.386811
  O 6.027293 -0.931057 -0.670822
  H 0.397139 0.503908 2.169196
  H 0.035376 -1.013785 1.331634
  H -0.241648 0.494653 0.516267
  H 3.479369 1.158843 0.636804
  H 3.681363 -0.339214 1.504406
  H 2.290258 0.549369 3.386784
  H 2.085869 2.065053 2.497075
  H 4.762584 0.903398 3.399263
  H 3.907553 2.236716 4.161568
  H 4.543147 2.426203 2.532937
  H 1.064741 -1.112453 -1.068480
  H 5.245258 -0.779124 -0.124130
  H 5.458444 -1.944669 -3.093409
  H 5.522659 -0.214889 -3.344926
  H 3.411766 -0.368183 -4.743751
  H 3.374473 -2.115392 -4.481041
  H 6.764811 -0.820200 -0.061798
 29
 42.783283
  C 0.470804 -0.088158 1.341279
  C 1.785263 -0.102434 0.684270
  C 2.981329 0.530512 1.276589
  C 2.803381 1.291465 2.585807
  C 4.130128 1.881665 3.053738
  C 1.877683 -0.744484 -0.544574
  C 2.993780 -0.835010 -1.339860
  C 3.908406 -0.876727 -2.151101
  C 4.822533 -0.963251 -3.232128
  C 4.114907 -1.096176 -4.581059
  H 4.853939 -1.192431 -5.370564
  O 5.991533 -1.057943 -0.594564
  H 0.470664 0.440744 2.286228
  H 0.126760 -1.111953 1.503057
  H -0.271455 0.361201 0.678589
  H 3.414888 1.204135 0.526822
  H 3.737624 -0.249358 1.425375
  H 2.424957 0.626121 3.363730
  H 2.087040 2.103716 2.450247
  H 4.868255 1.100650 3.219647
  H 3.995227 2.415926 3.990918
  H 4.525347 2.582525 2.322263
  H 0.988659 -1.212016 -0.951592
  H 5.215785 -0.985983 -0.027591
  H 5.443580 -1.850478 -3.051380
  H 5.505641 -0.109860 -3.213673
  H 3.509044 -0.215074 -4.779005
  H 3.468113 -1.969309 -4.600322
  H 6.737361 -0.884335 -0.014046
 29
 41.600439
  C 0.449362 -0.160091 1.371337
  C 1.744041 -0.168793 0.676921
  C 2.937897 0.525468 1.199434
  C 2.783056 1.336201 2.480828
  C 4.106676 1.986996 2.870822
  C 1.819572 -0.855601 -0.529446
  C 2.927571 -0.939179 -1.334609
  C 3.900700 -0.948503 -2.076091
  C 4.874725 -0.973423 -3.110433
  C 4.250229 -0.748173 -4.491227
  H 5.022823 -0.813081 -5.251517
  O 5.784237 -1.781945 -0.480386
  H 0.465431 0.396423 2.300112
  H 0.127402 -1.184582 1.569561
  H -0.319092 0.257180 0.717205
  H 3.326921 1.176003 0.406411
  H 3.727020 -0.220583 1.348595
  H 2.455606 0.693657 3.300055
  H 2.035921 2.119101 2.339100
  H 4.873649 1.236930 3.048418
  H 3.988132 2.565436 3.783580
  H 4.455532 2.659498 2.090688
  H 0.931792 -1.350880 -0.903849
  H 5.040057 -1.730625 0.126700
  H 5.341900 -1.965385 -3.083545
  H 5.663554 -0.247509 -2.902257
  H 3.792504 0.236243 -4.541708
  H 3.489400 -1.494629 -4.703370
  H 6.570886 -1.671381 0.065300
 29
 42.144908
  C 0.534290 -0.395341 1.474965
  C 1.796641 -0.309169 0.724829
  C 2.933393 0.527755 1.160516
  C 2.754849 1.367324 2.420560
  C 4.020001 2.165191 2.720382
  C 1.897192 -1.048578 -0.448290
  C 2.983547 -1.061051 -1.285047
  C 3.953437 -1.029105 -2.035443
  C 4.897140 -0.906846 -3.095328
  C 4.209024 -0.476615 -4.397584
  H 4.948428 -0.417838 -5.189556
  O 5.758709 -1.974633 -0.574477
  H 0.532175 0.202585 2.379319
  H 0.322549 -1.435894 1.730099
  H -0.295904 -0.083411 0.838318
  H 3.207843 1.185475 0.326284
  H 3.806202 -0.122793 1.290683
  H 2.536184 0.725706 3.276458
  H 1.923314 2.063390 2.291784
  H 4.868064 1.505113 2.883884
  H 3.885273 2.763942 3.616768
  H 4.259954 2.837959 1.901167
  H 1.053586 -1.651191 -0.761335
  H 5.100129 -1.946125 0.125230
  H 5.360622 -1.887654 -3.243060
  H 5.684112 -0.205091 -2.816804
  H 3.746438 0.500132 -4.276964
  H 3.443255 -1.189838 -4.689438
  H 6.608611 -1.802913 -0.153319
