 24
 0.000000
  H 1.478619 0.062664 0.092219
  C 2.551566 0.068034 -0.005228
  C 3.334928 0.000242 1.276422
  C 2.461657 -0.082890 2.525611
  C 3.304164 -0.153523 3.794674
  C 3.135838 0.129708 -1.192037
  C 2.477591 0.203861 -2.538248
  C 0.951237 0.207602 -2.540002
  C 0.401992 0.286232 -3.961326
  H 4.217571 0.131657 -1.245782
  H 3.983062 0.880455 1.351361
  H 3.992885 -0.874532 1.247423
  H 1.825958 -0.969973 2.468839
  H 1.811634 0.794248 2.576671
  H 3.946894 -1.031658 3.780190
  H 2.665599 -0.212334 4.673944
  H 3.932615 0.730045 3.887723
  H 2.829572 -0.643186 -3.139891
  H 2.833581 1.109212 -3.045112
  H 0.584490 1.064022 -1.971092
  H 0.580185 -0.703672 -2.067252
  H 0.739195 1.195986 -4.454266
  H -0.686229 0.288254 -3.949535
  H 0.735004 -0.566357 -4.550037
 24
 -0.225442
  H 1.503466 -0.234379 0.065976
  C 2.569226 -0.084315 -0.019294
  C 3.353174 -0.156707 1.261030
  C 2.467611 -0.022048 2.497310
  C 3.280184 -0.087774 3.784577
  C 3.135257 0.168427 -1.186460
  C 2.483796 0.275965 -2.530934
  C 0.962856 0.157611 -2.527121
  C 0.390857 0.302917 -3.932020
  H 4.210694 0.309411 -1.220439
  H 4.100767 0.642195 1.254999
  H 3.893191 -1.107989 1.306121
  H 1.724192 -0.822725 2.497483
  H 1.932811 0.929668 2.454054
  H 3.806640 -1.037593 3.855539
  H 2.632449 0.010931 4.652928
  H 4.015996 0.713454 3.812769
  H 2.902249 -0.501250 -3.179722
  H 2.768142 1.237175 -2.971836
  H 0.541919 0.932292 -1.883276
  H 0.675504 -0.813732 -2.120325
  H 0.650638 1.272009 -4.352688
  H -0.693040 0.216917 -3.915188
  H 0.785342 -0.470656 -4.587424
 24
 -0.266142
  H 1.557714 -0.583750 0.004868
  C 2.590795 -0.272419 -0.036941
  C 3.356693 -0.317695 1.252631
  C 2.474311 0.020356 2.453686
  C 3.266539 0.015096 3.755040
  C 3.128914 0.184925 -1.153983
  C 2.478970 0.335919 -2.496298
  C 0.967031 0.129026 -2.509421
  C 0.386486 0.357679 -3.899929
  H 4.181599 0.446958 -1.157935
  H 4.156096 0.421801 1.166541
  H 3.803430 -1.305622 1.395099
  H 1.661602 -0.706993 2.520939
  H 2.027339 1.005539 2.302240
  H 3.707118 -0.964503 3.929317
  H 2.622493 0.256408 4.597667
  H 4.069599 0.748013 3.715516
  H 2.944124 -0.372705 -3.190820
  H 2.707426 1.338504 -2.872172
  H 0.503075 0.820711 -1.803167
  H 0.736055 -0.887911 -2.186503
  H 0.588707 1.372351 -4.237108
  H -0.690624 0.206834 -3.895468
  H 0.826381 -0.333651 -4.615990
 24
 0.172023
  H 1.706604 -0.945832 -0.091657
  C 2.688341 -0.478268 -0.072567
  C 3.398483 -0.498372 1.257137
  C 2.485486 0.051578 2.361622
  C 3.215858 0.125359 3.710579
  C 3.161857 0.185274 -1.126867
  C 2.484614 0.388742 -2.467099
  C 0.963791 0.107885 -2.471146
  C 0.339418 0.440970 -3.840447
  H 4.199290 0.518974 -1.105807
  H 4.288126 0.147885 1.169827
  H 3.712622 -1.514365 1.535012
  H 1.595403 -0.590613 2.462270
  H 2.142112 1.051518 2.063906
  H 3.556718 -0.865328 4.026328
  H 2.550139 0.513383 4.482887
  H 4.092789 0.781516 3.636631
  H 2.967159 -0.248037 -3.227227
  H 2.670210 1.428252 -2.778703
  H 0.486946 0.705974 -1.679322
  H 0.771724 -0.949383 -2.243124
  H 0.498311 1.496673 -4.082362
  H -0.741916 0.233803 -3.831413
  H 0.794584 -0.155692 -4.640774
 24
 9.157446
  H 1.873163 -1.360903 -0.236369
  C 2.734220 -0.725483 -0.113325
  C 3.394657 -0.673287 1.233721
  C 2.455674 0.036576 2.228757
  C 3.153366 0.300687 3.560506
  C 3.193058 0.050593 -1.083527
  C 2.503103 0.355636 -2.385051
  C 0.991685 0.152592 -2.364978
  C 0.352107 0.592420 -3.675381
  H 4.253679 0.264545 -1.119727
  H 4.195615 0.043322 1.051996
  H 3.687748 -1.640840 1.629288
  H 1.570466 -0.584162 2.405976
  H 2.114837 0.978885 1.792272
  H 3.489993 -0.634828 4.007321
  H 2.473468 0.790721 4.259098
  H 4.021788 0.941899 3.417536
  H 2.938756 -0.249746 -3.190150
  H 2.717362 1.401208 -2.627352
  H 0.565647 0.724140 -1.539562
  H 0.766029 -0.899289 -2.192444
  H 0.546093 1.646784 -3.860671
  H -0.725908 0.441530 -3.646686
  H 0.756708 0.021066 -4.507846
 24
 29.381941
  H 1.991063 -1.765740 -0.379882
  C 2.728806 -1.022362 -0.150345
  C 3.297393 -0.862197 1.233272
  C 2.373702 -0.006158 2.127882
  C 3.135476 0.528858 3.334014
  C 3.238956 -0.150816 -1.030627
  C 2.558063 0.315583 -2.289192
  C 1.038515 0.192452 -2.250467
  C 0.395033 0.780348 -3.499708
  H 4.317098 -0.069169 -1.110736
  H 3.994012 -0.082632 0.924740
  H 3.591252 -1.771298 1.744785
  H 1.528998 -0.611983 2.481301
  H 1.959096 0.817583 1.543401
  H 3.549896 -0.293768 3.917401
  H 2.473837 1.107063 3.977196
  H 3.957548 1.169656 3.016877
  H 2.937988 -0.234513 -3.157105
  H 2.830193 1.364838 -2.435499
  H 0.662744 0.708390 -1.366580
  H 0.760797 -0.857213 -2.163843
  H 0.646053 1.835724 -3.599523
  H -0.686963 0.686791 -3.455874
  H 0.748913 0.261870 -4.390047
 24
 60.301664
  H 2.077902 -2.066686 -0.480636
  C 2.700391 -1.239151 -0.161983
  C 3.156657 -0.973444 1.222287
  C 2.319387 0.008991 2.074729
  C 3.164785 0.645639 3.164341
  C 3.245656 -0.272595 -0.953251
  C 2.596933 0.294671 -2.199940
  C 1.071812 0.204963 -2.184271
  C 0.451422 0.884285 -3.400332
  H 4.322902 -0.261773 -1.046927
  H 3.739469 -0.060737 0.737110
  H 3.468825 -1.816533 1.830931
  H 1.493987 -0.537938 2.546854
  H 1.876750 0.780428 1.444169
  H 3.621285 -0.117534 3.788782
  H 2.550344 1.283378 3.795442
  H 3.957291 1.252503 2.731898
  H 2.979783 -0.216213 -3.093899
  H 2.897747 1.343646 -2.283603
  H 0.696078 0.674613 -1.271949
  H 0.769043 -0.842996 -2.160900
  H 0.722687 1.938785 -3.431433
  H -0.634572 0.812723 -3.365831
  H 0.795332 0.412185 -4.319705
 24
 80.650046
  H 2.196061 -2.211815 -0.504174
  C 2.763248 -1.366451 -0.149361
  C 3.081101 -1.039450 1.187668
  C 2.281902 0.006116 1.961934
  C 3.109545 0.691848 3.043457
  C 3.306896 -0.302110 -0.910267
  C 2.634982 0.298149 -2.132034
  C 1.110047 0.223966 -2.073959
  C 0.465084 0.918749 -3.266803
  H 4.386085 -0.317212 -1.046458
  H 3.689505 0.080786 0.430870
  H 3.365240 -1.850335 1.870707
  H 1.439888 -0.508916 2.438582
  H 1.867403 0.756532 1.285858
  H 3.518419 -0.044197 3.733023
  H 2.494971 1.388448 3.610292
  H 3.938432 1.243653 2.602231
  H 2.991656 -0.211281 -3.035190
  H 2.940103 1.346739 -2.216478
  H 0.763976 0.690055 -1.148454
  H 0.798081 -0.820853 -2.052297
  H 0.745001 1.969835 -3.295132
  H -0.619265 0.854545 -3.208232
  H 0.785895 0.455166 -4.197441
 24
 61.008788
  H 2.356658 -2.309233 -0.556725
  C 2.823985 -1.434028 -0.138331
  C 2.972076 -1.131771 1.178723
  C 2.240917 -0.004017 1.877851
  C 3.073411 0.712871 2.945601
  C 3.402357 -0.290400 -0.893497
  C 2.684998 0.295944 -2.093731
  C 1.166084 0.221571 -1.972418
  C 0.473251 0.925564 -3.131096
  H 4.489814 -0.338462 -1.025105
  H 3.592745 0.235526 0.135739
  H 3.192774 -1.899987 1.932980
  H 1.375308 -0.466567 2.364803
  H 1.866518 0.730841 1.158724
  H 3.440582 -0.002148 3.682404
  H 2.473294 1.460244 3.464057
  H 3.930211 1.212006 2.496459
  H 3.027093 -0.177748 -3.015107
  H 2.958929 1.356188 -2.163443
  H 0.860496 0.681132 -1.030877
  H 0.851003 -0.822636 -1.945799
  H 0.754738 1.976608 -3.164313
  H -0.608102 0.862427 -3.027430
  H 0.752296 0.466954 -4.077383
 24
 39.650338
  H 2.491108 -2.229119 -0.572047
  C 2.936985 -1.359660 -0.123896
  C 2.983563 -1.099300 1.191155
  C 2.259788 0.012600 1.897929
  C 3.036084 0.631250 3.059492
  C 3.412575 -0.178715 -0.904100
  C 2.672674 0.334320 -2.127483
  C 1.155704 0.308884 -1.948730
  C 0.433044 0.865627 -3.168757
  H 4.470568 -0.337788 -1.180739
  H 3.670305 0.479210 -0.034135
  H 3.100359 -1.953739 1.869753
  H 1.334993 -0.435089 2.274585
  H 1.989901 0.802496 1.193341
  H 3.302489 -0.133210 3.787971
  H 2.438724 1.391684 3.562577
  H 3.954689 1.090908 2.700917
  H 2.925117 -0.321182 -2.967476
  H 3.006946 1.340747 -2.381244
  H 0.887350 0.897083 -1.068450
  H 0.830780 -0.716440 -1.770291
  H 0.729171 1.897598 -3.349059
  H -0.644793 0.836449 -3.026297
  H 0.680937 0.285380 -4.055467
 24
 24.471088
  H 2.520415 -2.159190 -0.614813
  C 2.885154 -1.274678 -0.117946
  C 2.852787 -1.094569 1.204933
  C 2.280859 0.081798 1.948793
  C 3.140488 0.558894 3.119473
  C 3.395880 -0.098876 -0.898052
  C 2.663414 0.366236 -2.149593
  C 1.145781 0.260422 -2.012704
  C 0.428899 0.801101 -3.243516
  H 4.466242 -0.245751 -1.102997
  H 3.500794 0.650778 -0.092203
  H 2.932796 -1.938453 1.892745
  H 1.320197 -0.271536 2.334305
  H 2.082246 0.922731 1.282122
  H 3.337183 -0.261886 3.806005
  H 2.637240 1.352577 3.667243
  H 4.094276 0.940258 2.760786
  H 2.995979 -0.220867 -3.008842
  H 2.925372 1.409123 -2.346569
  H 0.825490 0.816882 -1.128851
  H 0.866057 -0.783737 -1.862239
  H 0.677194 1.848634 -3.402100
  H -0.649313 0.718510 -3.126476
  H 0.720622 0.242626 -4.130629
 24
 10.787974
  H 2.676925 -2.050581 -0.648059
  C 2.923180 -1.146764 -0.110689
  C 2.740638 -1.038332 1.199490
  C 2.311291 0.180006 1.969261
  C 3.179613 0.456795 3.196492
  C 3.402788 0.032301 -0.902528
  C 2.650802 0.369946 -2.186268
  C 1.135488 0.280545 -2.013642
  C 0.397333 0.707349 -3.276366
  H 4.465416 -0.136011 -1.127623
  H 3.457726 0.868126 -0.193299
  H 2.680425 -1.912587 1.842738
  H 1.288815 -0.029373 2.298193
  H 2.279454 1.070138 1.341355
  H 3.185820 -0.405008 3.860681
  H 2.801722 1.314118 3.749590
  H 4.204620 0.663840 2.896154
  H 2.967234 -0.305789 -2.984343
  H 2.910441 1.385870 -2.493857
  H 0.832176 0.917819 -1.179788
  H 0.857085 -0.744055 -1.760918
  H 0.646965 1.733826 -3.537101
  H -0.678792 0.642131 -3.132558
  H 0.671012 0.067243 -4.112723
 24
 2.466979
  H 2.940755 -1.989109 -0.644507
  C 2.971031 -1.049704 -0.108061
  C 2.631392 -1.002266 1.169474
  C 2.301140 0.218211 1.980801
  C 3.185919 0.340424 3.221280
  C 3.421793 0.136713 -0.906045
  C 2.648943 0.363932 -2.204467
  C 1.137361 0.341334 -1.987391
  C 0.376922 0.628649 -3.275972
  H 4.480998 -0.027406 -1.139940
  H 3.402443 1.022605 -0.264561
  H 2.498952 -1.899330 1.763836
  H 1.258651 0.114248 2.297614
  H 2.376389 1.131261 1.392188
  H 3.081836 -0.539508 3.852959
  H 2.911242 1.216813 3.804181
  H 4.230672 0.431386 2.931508
  H 2.924128 -0.402728 -2.932601
  H 2.932186 1.333174 -2.622177
  H 0.873020 1.086706 -1.233616
  H 0.841676 -0.635562 -1.599751
  H 0.649948 1.604744 -3.672159
  H -0.696052 0.618662 -3.098673
  H 0.606830 -0.121696 -4.029728
 24
 0.166244
  H 3.363758 -2.009852 -0.585160
  C 3.167794 -1.047017 -0.134996
  C 2.668003 -0.998461 1.086061
  C 2.253555 0.219691 1.858454
  C 3.005925 0.314646 3.184825
  C 3.540083 0.134774 -0.983000
  C 2.662321 0.297724 -2.222056
  C 1.182514 0.418339 -1.869308
  C 0.324205 0.657583 -3.105207
  H 4.578322 -0.010281 -1.295162
  H 3.501769 1.034445 -0.357444
  H 2.535887 -1.908756 1.656267
  H 1.181534 0.139151 2.061539
  H 2.416290 1.133351 1.288995
  H 2.794663 -0.552568 3.809984
  H 2.714486 1.209874 3.726770
  H 4.081029 0.353626 3.004975
  H 2.808762 -0.557825 -2.883093
  H 2.975478 1.194317 -2.764296
  H 1.047649 1.242968 -1.167431
  H 0.855896 -0.498016 -1.367882
  H 0.645264 1.559845 -3.628720
  H -0.720868 0.774937 -2.828423
  H 0.403856 -0.180946 -3.791499
 24
 -0.882183
  H 3.490182 -1.959057 -0.582458
  C 3.242566 -1.000573 -0.140258
  C 2.668838 -0.984856 1.053284
  C 2.235141 0.207752 1.847372
  C 2.957821 0.258457 3.194336
  C 3.584380 0.175644 -1.002561
  C 2.663896 0.267837 -2.225576
  C 1.209043 0.518422 -1.838057
  C 0.307834 0.620630 -3.062524
  H 4.615010 0.058981 -1.351675
  H 3.528151 1.103623 -0.433443
  H 2.497874 -1.927343 1.561043
  H 1.157418 0.134334 2.025165
  H 2.418153 1.131946 1.300916
  H 2.753464 -0.640073 3.772037
  H 2.631127 1.120285 3.770760
  H 4.032279 0.330477 3.042662
  H 2.730651 -0.661939 -2.795950
  H 3.009226 1.079615 -2.870693
  H 1.144300 1.443858 -1.261670
  H 0.864100 -0.294644 -1.196506
  H 0.632334 1.434124 -3.710098
  H -0.722449 0.808096 -2.766105
  H 0.336837 -0.304044 -3.635806
