 20
 0.000000
  C 0.958034 -0.017200 -0.005813
  C 2.454348 0.001061 0.011841
  C 3.169013 0.813766 0.797319
  C 4.606798 0.829585 0.812606
  C 5.326962 1.646151 1.601825
  C 6.765636 1.660223 1.615421
  C 7.484238 2.471733 2.399744
  C 8.974305 2.501223 2.428247
  H 0.598152 -0.756566 -0.720406
  H 0.561723 0.953953 -0.301036
  H 0.561721 -0.279178 0.974831
  H 2.954852 -0.688561 -0.654686
  H 2.658724 1.500622 1.461172
  H 5.110793 0.140686 0.146788
  H 4.823504 2.335210 2.267797
  H 7.272104 0.972032 0.950284
  H 6.986125 3.162948 3.067807
  H 9.408482 1.783538 1.734600
  H 9.333504 2.268533 3.431840
  H 9.333505 3.496312 2.161511
 20
 -0.432222
  C 0.953876 -0.017965 -0.010789
  C 2.447170 -0.010270 0.016667
  C 3.171010 0.811576 0.779200
  C 4.607421 0.812822 0.826318
  C 5.333316 1.654102 1.582998
  C 6.768027 1.656143 1.627380
  C 7.490090 2.493074 2.374567
  C 8.978091 2.509271 2.431281
  H 0.582121 -0.506411 -0.905250
  H 0.559061 0.996756 0.025946
  H 0.563686 -0.557420 0.853796
  H 2.946359 -0.734106 -0.612112
  H 2.660583 1.533331 1.407348
  H 5.112673 0.082408 0.205026
  H 4.827029 2.384608 2.205605
  H 7.271099 0.923884 1.006423
  H 6.989380 3.225042 2.995156
  H 9.404150 1.746440 1.782754
  H 9.319651 2.333715 3.452198
  H 9.357641 3.484168 2.123659
 20
 1.139082
  C 0.970565 0.060251 -0.065992
  C 2.459950 -0.000839 0.008791
  C 3.171449 0.659485 0.928625
  C 4.605863 0.684431 0.965642
  C 5.325093 1.596285 1.640092
  C 6.760104 1.623903 1.665421
  C 7.477960 2.535238 2.323900
  C 8.965904 2.564119 2.374402
  H 0.621457 -0.097292 -1.083605
  H 0.600652 1.023120 0.282738
  H 0.535212 -0.713625 0.568716
  H 2.948582 -0.684337 -0.673788
  H 2.647008 1.444547 1.460948
  H 5.115562 -0.094556 0.412200
  H 4.815152 2.375810 2.191694
  H 7.267008 0.838979 1.117475
  H 6.973436 3.317505 2.877160
  H 9.393018 1.746794 1.798218
  H 9.312684 2.487120 3.405378
  H 9.338971 3.507911 1.974851
 20
 9.695433
  C 0.986831 0.033239 -0.033025
  C 2.478260 0.082126 -0.064667
  C 3.176812 0.578693 0.971872
  C 4.613967 0.633932 0.984340
  C 5.328945 1.571861 1.628397
  C 6.763415 1.579041 1.697508
  C 7.479338 2.538609 2.291419
  C 8.964823 2.556444 2.378304
  H 0.580365 0.007655 -1.036012
  H 0.578346 0.902650 0.476977
  H 0.658171 -0.853975 0.506325
  H 2.963230 -0.423284 -0.889308
  H 2.648915 1.419823 1.401163
  H 5.129149 -0.199359 0.519513
  H 4.815979 2.402030 2.099350
  H 7.272083 0.747851 1.224380
  H 6.972505 3.372968 2.757919
  H 9.394669 1.670477 1.917931
  H 9.283657 2.603054 3.419704
  H 9.361456 3.439499 1.876456
 20
 29.018417
  C 1.012184 -0.003822 -0.025788
  C 2.485241 0.170820 -0.066934
  C 3.163977 0.535534 1.063652
  C 4.594233 0.610515 1.053461
  C 5.320195 1.590432 1.628190
  C 6.751108 1.572367 1.724047
  C 7.479181 2.558335 2.247177
  C 8.964955 2.545795 2.359360
  H 0.578481 0.150696 -1.007525
  H 0.548234 0.693146 0.672402
  H 0.780030 -1.014856 0.313922
  H 2.978762 -0.156167 -0.977641
  H 2.617750 1.459283 1.243248
  H 5.104314 -0.268664 0.678420
  H 4.816803 2.467503 2.016647
  H 7.247409 0.688154 1.341327
  H 6.985450 3.444966 2.629835
  H 9.377250 1.611405 1.985701
  H 9.269296 2.673650 3.398227
  H 9.395290 3.371966 1.788828
 20
 58.473977
  C 1.013937 -0.020065 -0.043825
  C 2.463189 0.308653 -0.060634
  C 3.159142 0.467437 1.140753
  C 4.590330 0.557083 1.149276
  C 5.318439 1.568046 1.661699
  C 6.749286 1.544607 1.767939
  C 7.491104 2.566356 2.209486
  C 8.976960 2.546345 2.323490
  H 0.548065 0.260830 -0.976767
  H 0.497574 0.482868 0.773717
  H 0.898993 -1.093485 0.105329
  H 2.951760 0.179794 -1.032440
  H 2.580318 1.425027 1.050796
  H 5.100506 -0.350993 0.842012
  H 4.820655 2.478942 1.972389
  H 7.237340 0.626753 1.460988
  H 7.008890 3.487086 2.513937
  H 9.377966 1.580588 2.024325
  H 9.283799 2.750664 3.349936
  H 9.417513 3.318791 1.691315
 20
 74.873733
  C 0.989530 -0.061392 -0.006877
  C 2.421945 0.397937 0.004074
  C 3.180050 0.429882 1.176932
  C 4.598462 0.550378 1.205832
  C 5.327338 1.588477 1.660057
  C 6.754128 1.553353 1.806143
  C 7.501893 2.589700 2.192565
  C 8.984981 2.552459 2.346742
  H 0.469280 0.259602 -0.907314
  H 0.447743 0.291555 0.866975
  H 0.980271 -1.150616 0.018616
  H 2.873152 0.427043 -0.997960
  H 2.505023 1.424715 0.787573
  H 5.106213 -0.381738 0.975038
  H 4.835595 2.526079 1.891501
  H 7.234034 0.607716 1.580411
  H 7.029819 3.538001 2.418107
  H 9.373825 1.560141 2.129274
  H 9.271086 2.825600 3.363320
  H 9.457541 3.267834 1.671316
 20
 70.237970
  C 0.998328 -0.130321 0.024634
  C 2.396932 0.463810 0.020954
  C 3.189275 0.443699 1.192701
  C 4.585254 0.589459 1.252141
  C 5.334556 1.633668 1.658571
  C 6.756569 1.567320 1.834999
  C 7.527048 2.605017 2.171895
  C 9.005432 2.536050 2.357392
  H 0.426044 0.158582 -0.857973
  H 0.453284 0.155020 0.919660
  H 1.081548 -1.216509 0.018980
  H 2.840060 0.506203 -0.983266
  H 2.340111 1.535681 0.468642
  H 5.073679 -0.368949 1.084539
  H 4.862731 2.593975 1.823064
  H 7.213855 0.596849 1.677376
  H 7.078482 3.577926 2.328852
  H 9.369505 1.521793 2.208956
  H 9.280665 2.863421 3.360910
  H 9.510746 3.194997 1.649224
 20
 65.369587
  C 1.036343 -0.221630 0.100423
  C 2.344512 0.555408 -0.019640
  C 3.175656 0.592692 1.156052
  C 4.550187 0.732206 1.231462
  C 5.341864 1.739398 1.669173
  C 6.756070 1.610511 1.843802
  C 7.571629 2.614290 2.185581
  C 9.043235 2.477812 2.381776
  H 0.423296 -0.106090 -0.791814
  H 0.472349 0.109868 0.967542
  H 1.252849 -1.281020 0.223287
  H 2.816754 0.418996 -1.004287
  H 2.115836 1.642883 0.063480
  H 5.023824 -0.230706 1.025556
  H 4.905704 2.714636 1.835806
  H 7.173420 0.621912 1.686176
  H 7.165655 3.606118 2.338182
  H 9.362419 1.448133 2.236307
  H 9.325713 2.792986 3.387196
  H 9.582891 3.113400 1.677689
 20
 64.130946
  C 1.063160 -0.271034 0.237147
  C 2.273857 0.605619 -0.117163
  C 3.187790 0.797145 0.989801
  C 4.540676 0.860506 1.080630
  C 5.349783 1.805307 1.670461
  C 6.758643 1.642027 1.813559
  C 7.597513 2.599513 2.244398
  C 9.057156 2.406801 2.452740
  H 0.440718 -0.427285 -0.642412
  H 0.460121 0.197657 1.017897
  H 1.398019 -1.238281 0.598842
  H 2.727376 0.266826 -1.064270
  H 1.923930 1.623646 -0.291418
  H 5.055353 -0.033036 0.714875
  H 4.924108 2.768420 1.914772
  H 7.163090 0.663620 1.573441
  H 7.211618 3.585042 2.470592
  H 9.356906 1.392596 2.203351
  H 9.324094 2.604512 3.491739
  H 9.626296 3.102201 1.834767
 20
 61.827562
  C 1.040657 -0.194242 0.261829
  C 2.343514 0.511231 -0.116012
  C 3.149768 0.894116 1.049350
  C 4.525549 0.885557 1.049627
  C 5.339604 1.774582 1.710658
  C 6.750198 1.648066 1.770856
  C 7.568324 2.572085 2.306025
  C 9.042805 2.427187 2.420283
  H 0.437792 -0.383401 -0.622040
  H 0.468191 0.415435 0.956912
  H 1.258446 -1.145639 0.741707
  H 2.890870 -0.071794 -0.872427
  H 2.099438 1.476768 -0.581231
  H 5.026509 0.036469 0.571784
  H 4.897463 2.675136 2.117865
  H 7.177000 0.735251 1.372081
  H 7.151086 3.492977 2.689680
  H 9.378216 1.477206 2.009992
  H 9.349083 2.486972 3.466392
  H 9.545694 3.237839 1.890416
