19
 0
 C -3.67351903 -0.60153694 0.08085045
 C -2.20361521 -0.93406601 -0.14469060
 C -2.00528930 -1.51555746 -1.54350512
 C -1.21581493 0.21438079 0.06776008
 C -1.69465498 1.61861769 0.33388925
 O 0.00000000 0.00000000 0.00000000
 H -4.29323634 -1.49863512 -0.02571821
 H -4.03506281 0.13822424 -0.64163543
 H -3.83851862 -0.20716740 1.08897630
 H -1.92916960 -1.69871578 0.59386691
 H -2.23337210 -0.77333190 -2.31630553
 H -2.65177300 -2.38543399 -1.70122104
 H -0.96975703 -1.83992066 -1.69355388
 H -2.77507265 1.69604380 0.44047742
 H -1.38559574 2.26151204 -0.49462066
 H -1.24111401 1.97181890 1.26458239
 O 3.35285372 -0.16801368 -0.05299085
 H 2.40000000 0.00000000 0.00000000
 H 3.56154852 -0.59992821 0.78894261
