 19
 0.000000
  C -3.678559 -0.588956 0.098099
  C -2.231614 -0.920653 -0.134598
  C -1.961631 -1.460357 -1.525850
  C -1.190671 0.223499 0.069856
  C -1.731447 1.588257 0.311919
  O -0.023871 -0.007000 -0.000680
  H -4.270904 -1.498531 -0.008921
  H -4.065744 0.115121 -0.635838
  H -3.854850 -0.214126 1.103049
  H -1.920336 -1.659528 0.619237
  H -2.197077 -0.735323 -2.304114
  H -2.598388 -2.327128 -1.697820
  H -0.919730 -1.751808 -1.639430
  H -2.809134 1.625666 0.404125
  H -1.406901 2.213502 -0.521217
  H -1.265302 1.965207 1.222734
  O 3.334798 -0.210375 -0.065439
  H 2.387472 -0.030190 -0.009720
  H 3.572726 -0.648987 0.759710
 19
 -0.176095
  C -3.643131 -0.599929 0.119077
  C -2.184748 -0.926468 -0.129980
  C -1.900500 -1.447034 -1.536367
  C -1.133214 0.233443 0.075468
  C -1.692842 1.602660 0.308424
  O 0.027570 -0.005579 0.003308
  H -4.220985 -1.526220 0.031297
  H -4.055733 0.075444 -0.627691
  H -3.819529 -0.224810 1.122623
  H -1.832562 -1.643289 0.634464
  H -2.168630 -0.726507 -2.307393
  H -2.525453 -2.323406 -1.714110
  H -0.856874 -1.716276 -1.660641
  H -2.775381 1.641720 0.397685
  H -1.356605 2.225001 -0.530891
  H -1.214298 1.998647 1.212723
  O 3.077742 -0.240650 -0.074957
  H 2.124635 -0.045460 -0.014738
  H 3.327714 -0.671947 0.735766
 19
 0.643614
  C -3.575761 -0.608976 0.120822
  C -2.144754 -0.923467 -0.131912
  C -1.875054 -1.430828 -1.522618
  C -1.088120 0.232953 0.070805
  C -1.648598 1.592405 0.300757
  O 0.075497 -0.001953 -0.002327
  H -4.143607 -1.533561 0.039593
  H -3.994202 0.056624 -0.620894
  H -3.745233 -0.238703 1.117744
  H -1.786597 -1.630817 0.625913
  H -2.151475 -0.709769 -2.283045
  H -2.498442 -2.301509 -1.697200
  H -0.839375 -1.699268 -1.655090
  H -2.733713 1.621794 0.389342
  H -1.312578 2.208509 -0.538797
  H -1.169675 1.988019 1.200297
  O 2.823501 -0.248214 -0.091568
  H 1.898970 -0.007613 -0.015924
  H 3.100452 -0.682611 0.735759
 19
 3.018087
  C -3.533184 -0.610596 0.142746
  C -2.099114 -0.926296 -0.131401
  C -1.843173 -1.430064 -1.541515
  C -1.055614 0.241095 0.073372
  C -1.628340 1.600898 0.294268
  O 0.113619 0.003274 0.004855
  H -4.102219 -1.542111 0.079392
  H -3.963570 0.050318 -0.599482
  H -3.688461 -0.225960 1.146339
  H -1.728590 -1.640819 0.614336
  H -2.138606 -0.704722 -2.298428
  H -2.464081 -2.310564 -1.711301
  H -0.799659 -1.692288 -1.692813
  H -2.707212 1.627538 0.377289
  H -1.297355 2.215945 -0.542278
  H -1.162161 2.008781 1.189696
  O 2.668308 -0.271684 -0.089407
  H 1.720515 -0.002025 -0.007682
  H 2.924181 -0.702877 0.735601
 19
 8.554632
  C -3.502702 -0.617928 0.158907
  C -2.064672 -0.922580 -0.127455
  C -1.815034 -1.417997 -1.547795
  C -1.041104 0.244530 0.072766
  C -1.611893 1.603075 0.284177
  O 0.140354 0.010353 0.008666
  H -4.063514 -1.552735 0.104874
  H -3.946889 0.042162 -0.584156
  H -3.650568 -0.229375 1.163619
  H -1.686534 -1.645870 0.611780
  H -2.121990 -0.690113 -2.296864
  H -2.428772 -2.303899 -1.718443
  H -0.772000 -1.670137 -1.709200
  H -2.687283 1.626436 0.363746
  H -1.277041 2.217369 -0.562046
  H -1.144347 2.019563 1.185780
  O 2.548336 -0.293573 -0.091240
  H 1.565859 -0.012275 -0.008804
  H 2.798528 -0.712019 0.735273
 19
 16.798200
  C -3.476875 -0.623743 0.161448
  C -2.032991 -0.922961 -0.128758
  C -1.793102 -1.414091 -1.541329
  C -1.023435 0.253673 0.071319
  C -1.594623 1.613438 0.283038
  O 0.156008 0.023497 0.007126
  H -4.035895 -1.561747 0.109589
  H -3.923729 0.034738 -0.578630
  H -3.622953 -0.233838 1.163882
  H -1.653625 -1.648229 0.602292
  H -2.108491 -0.680886 -2.285390
  H -2.404807 -2.302377 -1.707616
  H -0.744283 -1.663328 -1.708873
  H -2.681805 1.634791 0.364294
  H -1.268942 2.226397 -0.552793
  H -1.137451 2.032361 1.172337
  O 2.461229 -0.313536 -0.102261
  H 1.433560 -0.019278 -0.015972
  H 2.716691 -0.731099 0.728814
 19
 24.937390
  C -3.472244 -0.623428 0.168512
  C -2.024612 -0.921878 -0.130442
  C -1.792779 -1.413562 -1.553914
  C -1.027288 0.239406 0.066092
  C -1.575799 1.607168 0.282885
  O 0.161205 0.008116 -0.001753
  H -4.034051 -1.560909 0.113885
  H -3.921032 0.041633 -0.568339
  H -3.612927 -0.234947 1.178495
  H -1.646277 -1.660767 0.593451
  H -2.107536 -0.679232 -2.289527
  H -2.404742 -2.297107 -1.720269
  H -0.753645 -1.663338 -1.727274
  H -2.651519 1.641831 0.368650
  H -1.242849 2.219502 -0.558211
  H -1.103600 2.021630 1.175537
  O 2.445045 -0.327170 -0.095630
  H 1.324128 -0.056126 -0.037235
  H 2.729428 -0.629120 0.778857
 19
 32.229009
  C -3.450784 -0.631043 0.256550
  C -2.028297 -0.980116 -0.118579
  C -1.883892 -1.416986 -1.575413
  C -1.015134 0.170301 0.050855
  C -1.484491 1.569565 0.134419
  O 0.169936 -0.156375 0.084918
  H -4.052846 -1.538001 0.233718
  H -3.896077 0.094726 -0.419138
  H -3.504171 -0.241997 1.270453
  H -1.650576 -1.768361 0.543304
  H -2.245054 -0.650341 -2.258438
  H -2.514341 -2.290962 -1.733396
  H -0.857590 -1.666923 -1.824245
  H -2.559924 1.681339 0.144062
  H -1.066862 2.107234 -0.723197
  H -1.027983 2.034376 1.009641
  O 2.503541 -0.223139 0.021988
  H 1.229603 0.028920 -0.005970
  H 2.647518 -0.388911 0.957098
 19
 34.937066
  C -3.454039 -0.605070 0.255785
  C -2.039270 -0.973896 -0.117271
  C -1.900469 -1.408577 -1.586180
  C -1.018003 0.148991 0.053212
  C -1.453402 1.550417 0.139176
  O 0.153478 -0.205701 0.091437
  H -4.061088 -1.511548 0.207087
  H -3.899171 0.105553 -0.438673
  H -3.521812 -0.239331 1.268026
  H -1.677222 -1.782547 0.524373
  H -2.240735 -0.635084 -2.268240
  H -2.537456 -2.277408 -1.743035
  H -0.878651 -1.684937 -1.828580
  H -2.532749 1.675282 0.153941
  H -1.029004 2.088046 -0.716141
  H -1.003653 1.993458 1.027448
  O 2.535307 -0.131957 0.016967
  H 1.132801 0.041259 0.033257
  H 2.733256 -0.325012 0.932954
 19
 34.405674
  C -3.476946 -0.589396 0.246444
  C -2.068822 -0.997370 -0.127173
  C -1.955776 -1.402548 -1.598168
  C -1.014070 0.087255 0.053670
  C -1.382430 1.496871 0.133548
  O 0.151438 -0.339952 0.097200
  H -4.110613 -1.477360 0.178157
  H -3.898262 0.131361 -0.449648
  H -3.543311 -0.231962 1.265116
  H -1.739997 -1.834590 0.494177
  H -2.266141 -0.598707 -2.260843
  H -2.622154 -2.248641 -1.767024
  H -0.944067 -1.716711 -1.848859
  H -2.447926 1.666453 0.139817
  H -0.923996 2.029295 -0.707799
  H -0.935333 1.920709 1.034182
  O 2.593092 0.090549 0.052353
  H 1.017925 0.076169 0.087318
  H 2.865288 -0.156912 0.935271
 19
 35.901063
  C -3.509216 -0.574144 0.236248
  C -2.104723 -1.004581 -0.142043
  C -2.009380 -1.412147 -1.619439
  C -1.029562 0.017872 0.042923
  C -1.334466 1.456584 0.138712
  O 0.136288 -0.443028 0.112151
  H -4.178934 -1.438680 0.157911
  H -3.907726 0.167179 -0.452629
  H -3.559719 -0.214340 1.259703
  H -1.808864 -1.865761 0.461560
  H -2.288573 -0.591624 -2.275611
  H -2.710589 -2.226907 -1.801727
  H -1.003982 -1.749743 -1.874242
  H -2.391318 1.668979 0.132977
  H -0.840304 1.985665 -0.689063
  H -0.883036 1.846728 1.042103
  O 2.718516 0.289015 0.095026
  H 0.912131 0.081418 0.128388
  H 3.065331 0.004761 0.943910
 19
 38.675103
  C -3.540728 -0.557099 0.217112
  C -2.145696 -0.998473 -0.163610
  C -2.060179 -1.424978 -1.639327
  C -1.066550 -0.001969 0.030482
  C -1.332885 1.425531 0.151041
  O 0.101679 -0.474349 0.131558
  H -4.227811 -1.401548 0.127584
  H -3.919301 0.203634 -0.467449
  H -3.580792 -0.193598 1.247095
  H -1.871142 -1.879620 0.433806
  H -2.322069 -0.599455 -2.301455
  H -2.776085 -2.222291 -1.820313
  H -1.059940 -1.779322 -1.892502
  H -2.386434 1.662421 0.125303
  H -0.829298 1.953365 -0.662133
  H -0.870382 1.799533 1.063732
  O 2.941850 0.395762 0.127296
  H 0.826776 0.091971 0.153124
  H 3.336124 0.098079 0.954012
 19
 41.058279
  C -3.584455 -0.564055 0.190405
  C -2.173180 -0.996875 -0.165600
  C -2.057352 -1.421945 -1.644386
  C -1.111839 0.031426 0.030710
  C -1.404331 1.460606 0.160645
  O 0.053259 -0.418431 0.149966
  H -4.253286 -1.412517 0.113528
  H -3.958195 0.188533 -0.494613
  H -3.637923 -0.192393 1.208064
  H -1.886095 -1.866434 0.444217
  H -2.324811 -0.602960 -2.307249
  H -2.754775 -2.234294 -1.833640
  H -1.055511 -1.759780 -1.881615
  H -2.470421 1.684347 0.124643
  H -0.902469 2.003844 -0.655901
  H -0.949949 1.840985 1.075811
  O 3.204337 0.314247 0.103536
  H 0.754260 0.177360 0.196086
  H 3.614556 -0.044464 0.897750
 19
 41.809007
  C -3.634836 -0.569872 0.167210
  C -2.210249 -0.970061 -0.172010
  C -2.059259 -1.405052 -1.638130
  C -1.169831 0.061774 0.057654
  C -1.484740 1.486824 0.164564
  O 0.015666 -0.369565 0.154925
  H -4.287756 -1.439495 0.082126
  H -4.018659 0.177951 -0.528507
  H -3.707807 -0.193692 1.177200
  H -1.922252 -1.826847 0.455197
  H -2.326526 -0.597632 -2.309043
  H -2.736043 -2.225647 -1.832860
  H -1.053943 -1.719799 -1.853964
  H -2.547407 1.690086 0.126736
  H -0.983423 2.023762 -0.657710
  H -1.046493 1.894115 1.078569
  O 3.475170 0.196665 0.060115
  H 0.689210 0.242728 0.224807
  H 3.893008 -0.175982 0.845345
