 28
 0.000000
  C 0.901378 0.052318 0.269913
  C 2.393360 0.059762 0.088152
  C 3.237772 -0.013197 1.353116
  C 2.522640 -0.087832 2.700963
  C 3.532745 -0.153904 3.841625
  C 2.992063 0.126194 -1.119108
  C 2.352786 0.203475 -2.492822
  C 0.842728 0.214882 -2.712660
  H 0.634436 0.275006 -3.776162
  C 4.453462 0.132844 -1.206644
  C 5.193495 0.195353 -2.308131
  H 6.270491 0.195934 -2.290219
  H 0.608084 -0.011278 1.311965
  H 0.455921 -0.807367 -0.223985
  H 0.457231 0.966787 -0.115727
  H 3.886034 0.868291 1.383347
  H 3.882759 -0.894885 1.283792
  H 1.889441 -0.976800 2.746193
  H 1.892612 0.792704 2.845773
  H 4.166072 -1.033773 3.747641
  H 3.017461 -0.206861 4.798469
  H 4.169271 0.728659 3.846907
  H 2.746611 -0.644581 -3.063893
  H 2.745465 1.111033 -2.964591
  H 0.380815 1.073516 -2.234282
  H 0.382025 -0.693006 -2.334496
  H 4.994416 0.081363 -0.274455
  H 4.811473 0.251016 -3.314130
 28
 -0.510283
  C 0.902978 0.201855 0.285438
  C 2.391842 0.152087 0.092732
  C 3.238519 0.048216 1.354579
  C 2.516595 -0.111505 2.696837
  C 3.531708 -0.294485 3.824663
  C 2.989964 0.186987 -1.116391
  C 2.348504 0.188188 -2.494125
  C 0.842094 0.111213 -2.708595
  H 0.658827 0.027245 -3.782381
  C 4.452259 0.211738 -1.208891
  C 5.197962 0.214413 -2.311059
  H 6.273919 0.252422 -2.240556
  H 0.645748 0.429874 1.313939
  H 0.447279 -0.755676 0.036220
  H 0.455204 0.970055 -0.338632
  H 3.873238 0.935088 1.429544
  H 3.898635 -0.816088 1.247181
  H 1.857436 -0.985799 2.668852
  H 1.913067 0.775131 2.918638
  H 4.140223 -1.181196 3.654865
  H 3.023772 -0.406419 4.780605
  H 4.194361 0.567707 3.888014
  H 2.782229 -0.674300 -3.014199
  H 2.709815 1.084219 -3.011843
  H 0.330034 1.004042 -2.364103
  H 0.410481 -0.760778 -2.231099
  H 4.985656 0.252102 -0.273784
  H 4.805254 0.179364 -3.311938
 28
 -0.751601
  C 0.938821 0.404177 0.312142
  C 2.412325 0.231417 0.093193
  C 3.251669 0.082854 1.351532
  C 2.501925 -0.148920 2.664882
  C 3.485680 -0.426655 3.796230
  C 2.999909 0.239566 -1.119938
  C 2.348070 0.171188 -2.490530
  C 0.848633 -0.029066 -2.679903
  H 0.666796 -0.241582 -3.732873
  C 4.460937 0.281647 -1.222220
  C 5.201574 0.265745 -2.327389
  H 6.274924 0.344366 -2.264772
  H 0.758588 0.939021 1.240083
  H 0.430189 -0.556845 0.382297
  H 0.492699 0.980956 -0.485436
  H 3.880236 0.970057 1.478518
  H 3.919238 -0.772125 1.212810
  H 1.826420 -1.000659 2.562421
  H 1.909787 0.727874 2.933754
  H 4.079487 -1.311623 3.581300
  H 2.955290 -0.590028 4.731059
  H 4.162744 0.414306 3.929511
  H 2.831618 -0.680021 -2.980807
  H 2.644865 1.066026 -3.046027
  H 0.272754 0.858290 -2.430693
  H 0.483828 -0.871491 -2.101973
  H 4.995259 0.380204 -0.289267
  H 4.805471 0.179203 -3.323466
 28
 1.184739
  C 0.991507 0.571881 0.305576
  C 2.442931 0.253089 0.106272
  C 3.269877 -0.003698 1.349341
  C 2.485572 -0.181995 2.648813
  C 3.425018 -0.513167 3.803320
  C 3.009390 0.308972 -1.115989
  C 2.337677 0.132440 -2.469644
  C 0.852261 -0.180388 -2.626367
  H 0.674025 -0.441915 -3.669285
  C 4.463591 0.388552 -1.251017
  C 5.188885 0.376431 -2.367107
  H 6.256932 0.511451 -2.324290
  H 0.890752 1.283138 1.123864
  H 0.384488 -0.299999 0.537316
  H 0.640227 1.069825 -0.587375
  H 3.987496 0.809773 1.499584
  H 3.850270 -0.916035 1.181640
  H 1.760628 -0.989994 2.534463
  H 1.940384 0.730611 2.893831
  H 3.969410 -1.434060 3.603699
  H 2.865119 -0.640384 4.727174
  H 4.149386 0.285862 3.948840
  H 2.866166 -0.723105 -2.903238
  H 2.574394 1.000035 -3.093939
  H 0.206795 0.662174 -2.397575
  H 0.562215 -1.029123 -2.013001
  H 5.002535 0.538810 -0.326020
  H 4.781473 0.237868 -3.352841
 28
 5.210057
  C 1.064088 0.803702 0.287915
  C 2.468066 0.313503 0.093138
  C 3.256342 -0.083807 1.319388
  C 2.449017 -0.195545 2.611261
  C 3.339390 -0.624944 3.772049
  C 3.029316 0.380851 -1.131070
  C 2.344993 0.062980 -2.452371
  C 0.888042 -0.386770 -2.501186
  H 0.676419 -0.743235 -3.508732
  C 4.474691 0.500039 -1.279633
  C 5.182797 0.525039 -2.407237
  H 6.239101 0.736764 -2.386343
  H 1.116476 1.663235 0.960444
  H 0.369894 0.086144 0.714879
  H 0.732412 1.201683 -0.663397
  H 4.077332 0.619629 1.496463
  H 3.716999 -1.054884 1.112538
  H 1.649173 -0.927896 2.485476
  H 1.991716 0.765499 2.852200
  H 3.797599 -1.590747 3.567141
  H 2.759299 -0.708529 4.688567
  H 4.133601 0.101270 3.935081
  H 2.931434 -0.776225 -2.838041
  H 2.478337 0.893242 -3.153407
  H 0.180485 0.408396 -2.289158
  H 0.714018 -1.205566 -1.807235
  H 5.014686 0.683625 -0.359614
  H 4.764162 0.354723 -3.383900
 28
 14.065482
  C 1.130436 0.962100 0.251109
  C 2.493328 0.350327 0.100277
  C 3.234817 -0.191412 1.288054
  C 2.434514 -0.194208 2.587704
  C 3.270596 -0.719858 3.748647
  C 3.036022 0.451542 -1.135677
  C 2.357095 -0.011047 -2.415568
  C 0.922222 -0.527307 -2.376090
  H 0.690833 -0.972210 -3.342653
  C 4.455791 0.683921 -1.312170
  C 5.164309 0.632454 -2.437628
  H 6.180612 0.988727 -2.465520
  H 1.270114 1.903410 0.796259
  H 0.368657 0.384391 0.760726
  H 0.901566 1.314820 -0.753093
  H 4.157030 0.380614 1.456659
  H 3.544009 -1.212701 1.048285
  H 1.554256 -0.830020 2.469633
  H 2.089293 0.815527 2.814329
  H 3.601563 -1.737152 3.550643
  H 2.689320 -0.723649 4.667940
  H 4.150916 -0.097944 3.901478
  H 2.975026 -0.867214 -2.705225
  H 2.444891 0.741967 -3.202558
  H 0.188252 0.251393 -2.193001
  H 0.811563 -1.291511 -1.611280
  H 4.968934 1.020378 -0.419333
  H 4.767829 0.283951 -3.375915
 28
 29.286498
  C 1.250664 1.139072 0.177403
  C 2.541946 0.378294 0.105632
  C 3.228780 -0.239579 1.282899
  C 2.398256 -0.196083 2.568024
  C 3.153059 -0.810061 3.740128
  C 3.052806 0.441390 -1.165964
  C 2.360978 -0.158222 -2.367481
  C 0.941668 -0.683613 -2.189162
  H 0.636028 -1.184631 -3.103455
  C 4.466315 0.732963 -1.367045
  C 5.115405 0.842196 -2.537004
  H 6.109453 1.248745 -2.584682
  H 1.446066 2.137368 0.596705
  H 0.433365 0.681252 0.716725
  H 1.262244 1.443955 -0.888936
  H 4.192958 0.262682 1.465519
  H 3.463775 -1.282269 1.034216
  H 1.462037 -0.739127 2.413537
  H 2.148306 0.840624 2.799289
  H 3.407780 -1.844651 3.528359
  H 2.543282 -0.791064 4.639365
  H 4.074042 -0.262232 3.934974
  H 2.991991 -1.015257 -2.618409
  H 2.392693 0.519327 -3.219110
  H 0.224118 0.105322 -1.987625
  H 0.902503 -1.400478 -1.374850
  H 4.988140 1.053789 -0.474611
  H 4.685741 0.545088 -3.477095
 28
 51.268670
  C 1.285342 1.220547 0.155283
  C 2.563443 0.484451 0.151058
  C 3.217432 -0.208778 1.284402
  C 2.378488 -0.220272 2.558026
  C 3.102912 -0.927176 3.696114
  C 3.042350 0.612822 -1.154797
  C 2.391777 -0.183856 -2.284776
  C 0.986232 -0.728377 -2.074408
  H 0.708045 -1.337864 -2.931548
  C 4.434104 0.895472 -1.423668
  C 5.081296 0.795853 -2.586211
  H 6.105076 1.113207 -2.681838
  H 1.380837 2.294883 0.369043
  H 0.456412 0.803462 0.703284
  H 1.437455 1.462908 -0.962761
  H 4.179764 0.280465 1.500441
  H 3.468711 -1.231629 0.985799
  H 1.430949 -0.728200 2.365494
  H 2.155944 0.806805 2.852187
  H 3.322011 -1.958770 3.429127
  H 2.496052 -0.924143 4.598357
  H 4.043888 -0.426005 3.917541
  H 3.068885 -1.022835 -2.464489
  H 2.373443 0.425002 -3.194144
  H 0.250832 0.062294 -1.969383
  H 0.945482 -1.348498 -1.181319
  H 4.980471 1.288536 -0.574118
  H 4.617163 0.430931 -3.488024
 28
 70.803046
  C 1.311388 1.270108 0.186927
  C 2.493223 0.492134 0.154276
  C 3.162978 -0.248514 1.259754
  C 2.377754 -0.243565 2.568932
  C 3.128146 -0.975093 3.674318
  C 2.984087 0.647068 -1.192291
  C 2.373946 -0.228829 -2.299089
  C 0.974359 -0.765649 -2.038494
  H 0.690989 -1.441228 -2.842730
  C 4.396938 0.968758 -1.400412
  C 5.091078 0.879769 -2.533021
  H 6.111900 1.219656 -2.590751
  H 1.402011 2.347630 0.215342
  H 0.454811 0.948098 0.784342
  H 1.757726 1.459069 -1.187899
  H 4.145822 0.211194 1.423915
  H 3.359673 -1.283242 0.953080
  H 1.409566 -0.722660 2.411709
  H 2.193606 0.789265 2.872651
  H 3.301879 -2.012406 3.396666
  H 2.557727 -0.959455 4.600350
  H 4.092022 -0.505065 3.857913
  H 3.048940 -1.084544 -2.416806
  H 2.378023 0.318944 -3.244774
  H 0.240313 0.034869 -1.992221
  H 0.941240 -1.313186 -1.100288
  H 4.882923 1.410535 -0.536092
  H 4.681501 0.471722 -3.440491
 28
 52.609625
  C 1.305399 1.308911 0.267331
  C 2.407629 0.522768 0.168535
  C 3.090934 -0.266284 1.228680
  C 2.371815 -0.260646 2.572790
  C 3.160041 -1.022868 3.630427
  C 2.940349 0.687799 -1.228332
  C 2.388723 -0.290245 -2.294950
  C 0.979142 -0.797193 -2.034701
  H 0.705102 -1.523916 -2.796686
  C 4.360248 1.055461 -1.384166
  C 5.100432 0.938644 -2.476126
  H 6.109982 1.310487 -2.510022
  H 1.388720 2.375429 0.147007
  H 0.464696 1.069838 0.919467
  H 2.009180 1.413003 -1.354594
  H 4.092827 0.157737 1.340834
  H 3.236449 -1.304702 0.903566
  H 1.383542 -0.711453 2.459261
  H 2.231429 0.773170 2.897657
  H 3.290829 -2.062346 3.336280
  H 2.642888 -0.998184 4.585862
  H 4.145165 -0.580576 3.764193
  H 3.064255 -1.152718 -2.351877
  H 2.422984 0.202566 -3.268102
  H 0.256184 0.015886 -2.061057
  H 0.914555 -1.276799 -1.060490
  H 4.792820 1.536316 -0.513156
  H 4.734740 0.490344 -3.384961
 28
 27.187667
  C 1.206344 1.327998 0.341848
  C 2.316427 0.598526 0.149569
  C 3.062134 -0.201494 1.161148
  C 2.383747 -0.297956 2.524247
  C 3.241255 -1.071261 3.518508
  C 2.884026 0.780354 -1.242668
  C 2.405411 -0.314832 -2.237144
  C 0.968285 -0.769388 -2.022799
  H 0.726197 -1.563179 -2.726956
  C 4.329465 1.110753 -1.348266
  C 5.135765 0.833161 -2.350544
  H 6.162530 1.158597 -2.347821
  H 1.152527 2.376888 0.100968
  H 0.466084 1.047002 1.083334
  H 2.102821 1.558536 -1.499112
  H 4.035195 0.288744 1.266994
  H 3.268658 -1.213744 0.792190
  H 1.416666 -0.794430 2.415208
  H 2.199921 0.709595 2.905089
  H 3.415855 -2.085933 3.165723
  H 2.749936 -1.125708 4.486575
  H 4.205660 -0.585470 3.650845
  H 3.061244 -1.185600 -2.147380
  H 2.518247 0.078052 -3.249417
  H 0.270640 0.050404 -2.178146
  H 0.827576 -1.151190 -1.015552
  H 4.717689 1.675536 -0.507480
  H 4.821564 0.278848 -3.219902
 28
 7.976680
  C 1.192147 1.427392 0.419281
  C 2.249064 0.676084 0.128807
  C 3.001293 -0.204426 1.080276
  C 2.409187 -0.300840 2.482835
  C 3.285455 -1.149052 3.396464
  C 2.822022 0.835384 -1.269631
  C 2.431751 -0.361735 -2.162967
  C 0.988295 -0.812919 -1.986446
  H 0.795658 -1.684436 -2.608740
  C 4.272391 1.183113 -1.310794
  C 5.153539 0.800536 -2.214110
  H 6.177974 1.130918 -2.170802
  H 1.018641 2.388026 -0.036696
  H 0.547056 1.249371 1.267217
  H 2.168029 1.644619 -1.634670
  H 4.009653 0.216099 1.140336
  H 3.109585 -1.213730 0.667512
  H 1.412554 -0.743542 2.426183
  H 2.305934 0.701871 2.901772
  H 3.371037 -2.163296 3.011528
  H 2.861056 -1.198129 4.396694
  H 4.285297 -0.725635 3.468928
  H 3.094851 -1.203089 -1.941040
  H 2.596234 -0.078438 -3.203719
  H 0.298160 -0.024196 -2.278747
  H 0.784491 -1.077886 -0.952743
  H 4.590209 1.846415 -0.514308
  H 4.906167 0.146582 -3.032393
 28
 -1.728003
  C 1.204711 1.524240 0.472859
  C 2.244189 0.782938 0.121999
  C 3.000829 -0.128710 1.046870
  C 2.415824 -0.288815 2.446805
  C 3.275094 -1.215880 3.298499
  C 2.781910 0.862882 -1.293820
  C 2.451460 -0.417966 -2.080838
  C 0.984897 -0.814502 -1.972123
  H 0.796898 -1.715332 -2.552571
  C 4.237472 1.224547 -1.313274
  C 5.168360 0.741649 -2.114709
  H 6.188133 1.084085 -2.056739
  H 0.825255 2.316351 -0.150684
  H 0.713624 1.418945 1.425198
  H 2.203679 1.665930 -1.770166
  H 4.015556 0.274150 1.129869
  H 3.096227 -1.117190 0.587707
  H 1.405548 -0.697513 2.376139
  H 2.352279 0.688144 2.929709
  H 3.333684 -2.205107 2.848980
  H 2.855211 -1.317991 4.296626
  H 4.285420 -0.822555 3.391066
  H 3.080730 -1.238398 -1.729213
  H 2.691784 -0.243432 -3.131574
  H 0.345169 -0.021321 -2.353176
  H 0.708226 -1.006507 -0.938692
  H 4.507588 1.980349 -0.584436
  H 4.967973 -0.007929 -2.860286
 28
 -3.683833
  C 1.250433 1.609870 0.538208
  C 2.199802 0.790426 0.115352
  C 2.902033 -0.217510 0.983126
  C 2.513396 -0.206283 2.458651
  C 3.299034 -1.252992 3.240187
  C 2.695572 0.859300 -1.317282
  C 2.486085 -0.457269 -2.075559
  C 1.025611 -0.892477 -2.055596
  H 0.881992 -1.770501 -2.681585
  C 4.122784 1.338057 -1.307618
  C 5.152848 0.795107 -1.928352
  H 6.137807 1.225939 -1.858864
  H 0.791135 2.326477 -0.122038
  H 0.891716 1.607071 1.552115
  H 2.101333 1.629009 -1.822591
  H 3.979215 -0.039782 0.896002
  H 2.716241 -1.218429 0.582648
  H 1.445787 -0.410978 2.558398
  H 2.710318 0.781516 2.880190
  H 3.110260 -2.248777 2.843594
  H 3.012272 -1.242897 4.289358
  H 4.367311 -1.056603 3.175362
  H 3.111300 -1.239625 -1.642504
  H 2.799684 -0.314298 -3.111920
  H 0.386693 -0.095761 -2.430924
  H 0.705095 -1.132786 -1.045024
  H 4.270448 2.231647 -0.711668
  H 5.071522 -0.092387 -2.531641
