 9
 0.000000
  H 1.384643 0.060267 0.194852
  C 2.460039 0.064828 0.084932
  C 3.272580 -0.004354 1.343934
  H 2.651678 -0.063229 2.232544
  C 3.022134 0.129640 -1.107580
  H 2.486694 0.189919 -2.039388
  H 4.098301 0.135811 -1.202206
  H 3.910816 0.875400 1.421610
  H 3.924385 -0.877660 1.321142
 9
 -0.331445
  H 1.406389 -0.123398 0.181492
  C 2.474451 0.010721 0.081482
  C 3.279476 -0.019892 1.343858
  H 2.651653 0.140649 2.218364
  C 3.022255 0.183150 -1.105673
  H 2.468486 0.215791 -2.024226
  H 4.088622 0.317846 -1.205373
  H 4.047475 0.753032 1.309315
  H 3.775855 -0.984672 1.453137
 9
 -0.681553
  H 1.428173 -0.299808 0.173447
  C 2.475676 -0.047573 0.080063
  C 3.285228 -0.037479 1.336613
  H 2.702374 0.342340 2.172979
  C 3.006335 0.243670 -1.092818
  H 2.472411 0.268013 -2.027399
  H 4.054726 0.491282 -1.171544
  H 4.158886 0.596567 1.190182
  H 3.616811 -1.044802 1.587357
 9
 0.759501
  H 1.470395 -0.462651 0.140977
  C 2.486213 -0.099023 0.076574
  C 3.294401 -0.082056 1.325968
  H 2.781265 0.503779 2.089337
  C 2.998052 0.331108 -1.065773
  H 2.419864 0.439073 -1.978384
  H 4.054713 0.533329 -1.162515
  H 4.214073 0.435240 1.087602
  H 3.475383 -1.077207 1.723474
 9
 10.227704
  H 1.487547 -0.613729 0.094633
  C 2.453899 -0.131500 0.077328
  C 3.299681 -0.128297 1.308524
  H 2.890073 0.608044 2.009612
  C 2.977602 0.413715 -1.007771
  H 2.443568 0.687122 -1.903255
  H 4.042637 0.419283 -1.159403
  H 4.215904 0.359675 0.977110
  H 3.384361 -1.079940 1.817844
 9
 29.379330
  H 1.483832 -0.663052 0.025500
  C 2.422620 -0.136711 0.087194
  C 3.264645 -0.146360 1.318159
  H 3.007905 0.651867 2.021036
  C 3.031000 0.433913 -0.953723
  H 2.453910 0.842848 -1.784746
  H 4.070259 0.255573 -1.205173
  H 4.093952 0.410750 0.852424
  H 3.370451 -1.100188 1.819605
 9
 58.867952
  H 1.466239 -0.750760 -0.002139
  C 2.422226 -0.262563 0.084954
  C 3.251335 -0.184315 1.292677
  H 3.081746 0.713771 1.896008
  C 3.043134 0.481700 -0.855849
  H 2.566818 1.037467 -1.661139
  H 4.003744 0.131647 -1.201612
  H 4.017328 0.459260 0.663810
  H 3.346897 -1.062527 1.915773
 9
 79.770021
  H 1.478954 -0.802156 -0.016411
  C 2.420374 -0.291840 0.127180
  C 3.183821 -0.222811 1.309824
  H 3.164294 0.692431 1.884063
  C 3.117185 0.494486 -0.807238
  H 2.584619 1.072990 -1.564718
  H 4.036319 0.097970 -1.216853
  H 3.948280 0.627634 0.384948
  H 3.261315 -1.088708 1.970065
 9
 57.993619
  H 1.540251 -0.862422 -0.013537
  C 2.458027 -0.331396 0.176902
  C 3.118642 -0.258530 1.356836
  H 3.161608 0.669287 1.897221
  C 3.177088 0.538544 -0.772758
  H 2.633780 1.146614 -1.473801
  H 3.994679 0.037385 -1.295125
  H 3.941976 0.777485 0.077252
  H 3.158912 -1.117848 2.042080
 9
 30.696597
  H 1.598857 -0.888153 -0.073740
  C 2.482467 -0.333287 0.182514
  C 3.075527 -0.322445 1.378304
  H 3.339480 0.610046 1.860965
  C 3.194829 0.566005 -0.772597
  H 2.603053 1.134005 -1.461166
  H 3.965964 0.008190 -1.308301
  H 3.903381 0.965684 -0.021351
  H 3.004197 -1.118355 2.120675
 9
 12.646409
  H 1.667060 -0.872146 -0.085132
  C 2.565709 -0.345752 0.197557
  C 3.044629 -0.350483 1.434576
  H 3.471451 0.522189 1.900041
  C 3.213302 0.576355 -0.781863
  H 2.550084 1.082540 -1.471142
  H 3.938367 -0.004807 -1.359240
  H 3.857967 1.195148 -0.163754
  H 2.832697 -1.150307 2.131875
 9
 1.506157
  H 1.914591 -1.058251 -0.113811
  C 2.662447 -0.354199 0.224281
  C 3.025767 -0.312238 1.505275
  H 3.553298 0.515870 1.948571
  C 3.208002 0.574325 -0.793916
  H 2.462600 0.908300 -1.507751
  H 4.005583 0.073863 -1.347629
  H 3.669664 1.384043 -0.276077
  H 2.639314 -1.078978 2.163975
 9
 -0.755924
  H 1.981817 -1.095216 -0.122853
  C 2.678570 -0.349933 0.239201
  C 3.005515 -0.322043 1.521267
  H 3.664761 0.422789 1.933294
  C 3.213750 0.582304 -0.793400
  H 2.436182 0.895864 -1.484134
  H 3.993575 0.086104 -1.373279
  H 3.644704 1.449585 -0.309703
  H 2.522392 -1.016718 2.192524
 9
 -1.295631
  H 1.997805 -1.111087 -0.143411
  C 2.673492 -0.354163 0.234563
  C 2.972186 -0.318623 1.519699
  H 3.640000 0.422335 1.928152
  C 3.221030 0.584026 -0.788744
  H 2.436235 0.904982 -1.471429
  H 3.989185 0.083224 -1.379569
  H 3.661671 1.458816 -0.318909
  H 2.549662 -1.016774 2.222567
