 14
 0.000000
  H 1.387681 0.123108 0.357066
  C 2.460703 0.091210 0.278156
  H 3.031788 0.432538 1.126632
  C 3.070771 -0.363292 -0.852143
  C 4.469130 -0.407885 -0.964175
  C 5.196592 -0.855776 -2.081411
  C 4.595381 -1.354626 -3.325710
  H 3.513264 -1.349797 -3.315130
  O 6.494866 -0.848233 -2.063372
  H 2.459018 -0.695371 -1.677994
  H 5.042942 -0.065387 -0.111517
  H 4.961349 -2.364331 -3.520424
  H 4.962323 -0.759881 -4.164171
  H 6.906305 -0.516960 -1.235867
 14
 1.029571
  H 1.386718 -0.042957 0.400818
  C 2.448194 0.069054 0.269267
  H 2.979908 0.638648 1.015851
  C 3.090561 -0.478282 -0.799863
  C 4.476191 -0.349686 -0.972376
  C 5.206240 -0.819874 -2.078825
  C 4.588721 -1.251037 -3.340999
  H 3.546057 -0.974450 -3.425826
  O 6.504993 -0.819782 -2.073019
  H 2.520367 -1.048392 -1.517724
  H 5.022711 0.194473 -0.211274
  H 4.684527 -2.336908 -3.421717
  H 5.158265 -0.849853 -4.179277
  H 6.932727 -0.782902 -1.194652
 14
 7.313720
  H 1.356375 0.010531 0.392276
  C 2.420396 0.109740 0.265544
  H 2.954047 0.680616 1.007985
  C 3.063128 -0.458028 -0.791870
  C 4.451659 -0.337597 -0.958002
  C 5.194384 -0.796700 -2.054999
  C 4.604061 -1.261028 -3.314617
  H 3.524835 -1.191368 -3.343767
  O 6.502861 -0.677802 -2.056531
  H 2.490579 -1.029285 -1.507949
  H 5.001482 0.208688 -0.202334
  H 4.924137 -2.291955 -3.485854
  H 5.035759 -0.701828 -4.147450
  H 7.005660 -1.087617 -1.330705
 14
 12.350693
  H 1.314899 0.053393 0.377783
  C 2.384993 0.116804 0.279518
  H 2.927203 0.594880 1.079332
  C 3.026390 -0.381072 -0.814300
  C 4.421130 -0.290745 -0.947380
  C 5.184947 -0.742477 -2.033904
  C 4.634021 -1.304381 -3.266953
  H 3.552911 -1.343616 -3.283504
  O 6.491688 -0.539587 -1.980545
  H 2.445095 -0.859093 -1.589218
  H 4.977621 0.169195 -0.139569
  H 5.046671 -2.301226 -3.440433
  H 4.997238 -0.715870 -4.114431
  H 7.089514 -1.226521 -1.649951
 14
 6.117623
  H 1.273231 0.097324 0.336164
  C 2.347454 0.116810 0.279975
  H 2.881248 0.492913 1.137128
  C 3.004996 -0.309385 -0.832391
  C 4.405550 -0.274020 -0.912135
  C 5.192556 -0.716068 -1.990832
  C 4.670258 -1.348216 -3.207660
  H 3.591533 -1.430721 -3.217408
  O 6.476990 -0.482884 -1.883540
  H 2.429292 -0.677697 -1.668696
  H 4.954905 0.095796 -0.053498
  H 5.098873 -2.342795 -3.348919
  H 5.007198 -0.766056 -4.068167
  H 7.102591 -1.204164 -2.075631
 14
 0.064545
  H 1.245917 0.138037 0.305817
  C 2.321643 0.134392 0.272970
  H 2.844286 0.493567 1.143802
  C 2.995233 -0.305062 -0.825974
  C 4.394758 -0.305782 -0.874833
  C 5.197475 -0.755008 -1.940978
  C 4.693686 -1.367629 -3.176378
  H 3.613852 -1.440541 -3.199586
  O 6.473448 -0.582184 -1.766233
  H 2.430585 -0.654298 -1.677432
  H 4.945066 0.048132 -0.011572
  H 5.114571 -2.365743 -3.307630
  H 5.030187 -0.782687 -4.034429
  H 7.070727 -1.049580 -2.384584
 14
 4.457095
  H 1.248371 0.132721 0.233790
  C 2.317176 0.223093 0.162875
  H 2.789771 0.995101 0.747605
  C 3.035156 -0.561224 -0.678967
  C 4.427585 -0.421716 -0.824745
  C 5.202645 -0.822069 -1.925739
  C 4.673135 -1.221683 -3.232068
  H 3.590460 -1.201068 -3.255155
  O 6.484306 -0.676622 -1.726685
  H 2.528008 -1.316868 -1.265129
  H 5.050789 -0.083124 -0.005897
  H 5.012662 -2.222924 -3.506781
  H 5.065665 -0.551630 -3.997518
  H 7.106040 -1.202930 -2.266393
 14
 17.949826
  H 1.261489 0.175184 0.284905
  C 2.322080 0.276474 0.144669
  H 2.785147 1.164706 0.494503
  C 2.991920 -0.640489 -0.541456
  C 4.376114 -0.482070 -0.846881
  C 5.144284 -0.837967 -1.966020
  C 4.695863 -1.151817 -3.320418
  H 3.609919 -1.147180 -3.393703
  O 6.432644 -0.668340 -1.684014
  H 2.492001 -1.535933 -0.889227
  H 5.175358 -0.213274 -0.157615
  H 5.047857 -2.124025 -3.650042
  H 5.134239 -0.418653 -4.025758
  H 7.068235 -1.328619 -1.991975
 14
 33.634006
  H 1.291043 0.211734 0.480218
  C 2.319592 0.325122 0.194258
  H 2.841236 1.206266 0.527454
  C 2.949011 -0.627113 -0.520378
  C 4.280126 -0.483466 -0.953599
  C 5.082892 -0.850721 -2.023072
  C 4.777660 -1.148051 -3.424005
  H 3.704004 -1.081620 -3.590709
  O 6.356631 -0.668220 -1.625102
  H 2.442999 -1.555140 -0.753328
  H 5.185805 -0.215740 -0.347765
  H 5.084671 -2.164228 -3.677612
  H 5.293950 -0.467040 -4.092895
  H 6.958090 -1.418994 -1.749545
 14
 62.043266
  H 1.334630 0.296129 0.628082
  C 2.320057 0.378202 0.206231
  H 2.820154 1.326310 0.306678
  C 2.887724 -0.664701 -0.451346
  C 4.129214 -0.608204 -1.058970
  C 4.948815 -0.886846 -2.052801
  C 4.809136 -1.129868 -3.497863
  H 3.760899 -1.141090 -3.778170
  O 6.256327 -0.675095 -1.504064
  H 2.383112 -1.626227 -0.459666
  H 5.499797 -0.352886 -0.514134
  H 5.249972 -2.091555 -3.758638
  H 5.325228 -0.355523 -4.063140
  H 6.896156 -1.416682 -1.585002
 14
 52.488336
  H 1.350336 0.303449 0.708290
  C 2.307494 0.386216 0.218441
  H 2.814533 1.336257 0.289583
  C 2.838192 -0.672869 -0.457344
  C 4.028323 -0.648674 -1.120899
  C 4.893226 -0.891281 -2.057420
  C 4.828903 -1.128869 -3.509348
  H 3.795515 -1.143054 -3.842467
  O 6.246683 -0.650091 -1.464779
  H 2.329257 -1.630755 -0.423321
  H 5.757578 -0.372253 -0.634838
  H 5.288245 -2.089438 -3.753763
  H 5.358566 -0.345070 -4.036981
  H 6.866314 -1.417261 -1.536130
 14
 47.507335
  H 1.332927 0.303535 0.697914
  C 2.278049 0.374833 0.185955
  H 2.769871 1.326503 0.209559
  C 2.824445 -0.682859 -0.456927
  C 4.020909 -0.664829 -1.119160
  C 4.893942 -0.882608 -2.049687
  C 4.843169 -1.100818 -3.501532
  H 3.801616 -1.140624 -3.820944
  O 6.275752 -0.679389 -1.490408
  H 2.333177 -1.664587 -0.358755
  H 5.870269 -0.402566 -0.617662
  H 5.324273 -2.020200 -3.749047
  H 5.352763 -0.288074 -4.028998
  H 6.881024 -1.464450 -1.575716
 14
 41.307986
  H 1.323656 0.284638 0.694064
  C 2.264692 0.356436 0.184659
  H 2.733079 1.325396 0.154135
  C 2.815198 -0.724040 -0.443083
  C 3.980805 -0.707902 -1.133840
  C 4.894195 -0.892834 -2.029797
  C 4.845918 -1.078966 -3.496878
  H 3.812657 -1.124619 -3.826658
  O 6.284336 -0.675369 -1.530422
  H 2.341461 -1.697451 -0.316249
  H 6.066849 -0.369656 -0.615608
  H 5.347093 -2.000025 -3.773390
  H 5.344912 -0.246443 -3.995553
  H 6.868518 -1.466830 -1.623435
 14
 37.587463
  H 1.304442 0.285809 0.683075
  C 2.209907 0.355702 0.110508
  H 2.612812 1.337259 -0.065445
  C 2.813275 -0.765251 -0.394526
  C 3.948477 -0.761185 -1.128986
  C 4.896466 -0.882909 -1.992579
  C 4.848891 -0.987966 -3.475545
  H 3.818668 -0.999574 -3.814558
  O 6.294344 -0.750337 -1.518213
  H 2.396190 -1.737392 -0.155184
  H 6.251159 -0.521322 -0.562847
  H 5.332628 -1.903044 -3.809345
  H 5.358472 -0.136140 -3.920937
  H 6.837639 -1.551315 -1.707474
 14
 37.324139
  H 1.210247 0.275534 0.558974
  C 2.149925 0.344841 0.044483
  H 2.545681 1.327286 -0.138807
  C 2.801563 -0.775679 -0.381937
  C 3.994194 -0.770413 -1.032653
  C 4.937939 -0.875451 -1.924538
  C 4.824722 -0.944742 -3.412169
  H 3.782738 -0.891779 -3.708789
  O 6.347747 -0.785087 -1.528359
  H 2.383099 -1.747728 -0.145152
  H 6.460933 -0.651699 -0.558160
  H 5.238120 -1.879207 -3.784999
  H 5.360082 -0.110625 -3.861102
  H 6.886378 -1.532916 -1.878847
