 20
 0.000000
  H 1.383975 0.137746 0.394054
  C 2.453972 0.138831 0.396445
  C 3.235887 0.609601 1.567949
  C 2.454651 1.098519 2.785050
  H 3.117958 1.411577 3.564099
  C 3.074760 -0.323868 -0.755623
  C 4.452396 -0.411652 -0.974602
  C 5.123831 -0.863395 -2.100714
  C 4.621920 -1.386396 -3.404454
  H 3.574840 -1.468216 -3.608977
  O 6.448567 -0.861790 -2.097024
  H 3.892013 1.422462 1.236076
  H 3.892206 -0.206765 1.890660
  H 1.816409 0.300727 3.170305
  H 1.816264 1.941012 2.511316
  H 2.419633 -0.642347 -1.548686
  H 5.073532 -0.080521 -0.149771
  H 5.075895 -2.376004 -3.531813
  H 5.076265 -0.759449 -4.180462
  H 6.820588 -0.526463 -1.260938
 20
 0.000000
  H 1.435015 0.123858 0.359477
  C 2.504928 0.129062 0.372110
  C 3.273776 0.602815 1.551038
  C 2.479048 1.088697 2.760597
  H 3.133658 1.404291 3.545956
  C 3.138493 -0.331221 -0.773956
  C 4.455548 -0.428510 -1.016656
  C 5.072460 -0.853822 -2.076883
  C 4.607107 -1.381498 -3.392253
  H 3.566083 -1.473400 -3.621880
  O 6.298708 -0.823923 -2.002668
  H 3.929915 1.418202 1.225448
  H 3.930113 -0.211025 1.880030
  H 1.840223 0.288447 3.139738
  H 1.840072 1.928732 2.480751
  H 2.492218 -0.652205 -1.573248
  H 5.092859 -0.101661 -0.202525
  H 5.073546 -2.366664 -3.508544
  H 5.073904 -0.750108 -4.157191
  H 6.587888 -0.456460 -1.086452
 20
 0.000000
  H 1.484638 0.110797 0.326949
  C 2.554337 0.120389 0.350500
  C 3.309163 0.597264 1.537206
  C 2.500145 1.079854 2.738583
  H 3.145406 1.398112 3.530576
  C 3.201448 -0.337264 -0.789032
  C 4.466183 -0.444141 -1.055648
  C 5.029901 -0.845455 -2.056052
  C 4.596379 -1.376887 -3.380757
  H 3.561148 -1.477450 -3.631944
  O 6.155855 -0.793412 -1.926648
  H 3.965240 1.415344 1.218314
  H 3.965442 -0.213884 1.872894
  H 1.860772 0.276980 3.111199
  H 1.860617 1.917267 2.452215
  H 2.564686 -0.660880 -1.594872
  H 5.121185 -0.122170 -0.253702
  H 5.073335 -2.358117 -3.487250
  H 5.073677 -0.741561 -4.135894
  H 6.348653 -0.393347 -0.929142
 20
 0.000000
  H 1.532181 0.098846 0.297180
  C 2.601511 0.113096 0.332322
  C 3.341348 0.593221 1.527129
  C 2.517264 1.072251 2.719660
  H 3.152513 1.393294 3.518593
  C 3.262920 -0.341704 -0.800121
  C 4.485438 -0.458145 -1.090584
  C 4.997908 -0.838562 -2.038895
  C 4.589708 -1.372778 -3.370509
  H 3.559425 -1.480156 -3.638653
  O 6.022580 -0.770745 -1.870170
  H 3.997275 1.414159 1.215350
  H 3.997478 -0.215071 1.869926
  H 1.877393 0.266590 3.085341
  H 1.877237 1.906879 2.426361
  H 2.636344 -0.668071 -1.612808
  H 5.159390 -0.141636 -0.302278
  H 5.074811 -2.350836 -3.469101
  H 5.075138 -0.734279 -4.117747
  H 6.104122 -0.338698 -0.792921
 20
 0.000000
  H 1.576748 0.088384 0.271115
  C 2.645533 0.107518 0.318417
  C 3.369532 0.590983 1.521552
  C 2.529758 1.066206 2.704623
  H 3.154405 1.390124 3.510723
  C 3.321851 -0.344220 -0.806422
  C 4.514007 -0.469959 -1.120063
  C 4.978314 -0.833553 -2.026428
  C 4.587232 -1.369552 -3.362457
  H 3.560462 -1.481502 -3.641966
  O 5.901223 -0.756400 -1.834426
  H 4.025206 1.414919 1.217235
  H 4.025407 -0.214313 1.871806
  H 1.889456 0.257620 3.063020
  H 1.889300 1.897911 2.404046
  H 2.706055 -0.673425 -1.626174
  H 5.207596 -0.159381 -0.346567
  H 5.077737 -2.345443 -3.455652
  H 5.078049 -0.728889 -4.104304
  H 5.856549 -0.294156 -0.681885
 20
 0.000000
  H 1.617257 0.079847 0.249840
  C 2.685313 0.104010 0.309664
  C 3.392880 0.590838 1.521190
  C 2.537071 1.062066 2.694328
  H 3.150698 1.388894 3.507687
  C 3.376886 -0.344505 -0.807162
  C 4.551790 -0.478681 -1.141835
  C 4.972841 -0.831038 -2.020176
  C 4.589195 -1.367793 -3.358056
  H 3.563992 -1.481724 -3.642477
  O 5.793883 -0.750884 -1.820680
  H 4.048190 1.417860 1.224560
  H 4.048388 -0.211374 1.879126
  H 1.896425 0.250463 3.045215
  H 1.896272 1.890757 2.386247
  H 2.772295 -0.676581 -1.634067
  H 5.264677 -0.174216 -0.383601
  H 5.082022 -2.342736 -3.448891
  H 5.082321 -0.726186 -4.097552
  H 5.609596 -0.261210 -0.599745
 20
 0.000000
  H 1.650769 0.073979 0.235210
  C 2.717972 0.102930 0.306962
  C 3.409770 0.592891 1.526308
  C 2.538803 1.060243 2.689802
  H 3.141834 1.389796 3.509959
  C 3.423983 -0.342447 -0.802060
  C 4.595043 -0.482697 -1.151871
  C 4.982231 -0.831940 -2.022436
  C 4.595508 -1.368399 -3.359548
  H 3.569653 -1.481522 -3.641934
  O 5.707589 -0.754477 -1.829628
  H 4.064638 1.422852 1.236999
  H 4.064830 -0.206384 1.891561
  H 1.897923 0.245765 3.033528
  H 1.897776 1.886060 2.374564
  H 2.830163 -0.677210 -1.635660
  H 5.324420 -0.183693 -0.407267
  H 5.087384 -2.343731 -3.451354
  H 5.087673 -0.727185 -4.100025
  H 5.382040 -0.241522 -0.550647
 20
 0.000000
  H 1.674539 0.071069 0.227951
  C 2.740904 0.104039 0.309719
  C 3.419373 0.596579 1.535500
  C 2.535765 1.060622 2.690759
  H 3.129823 1.392429 3.516536
  C 3.458971 -0.338653 -0.792618
  C 4.635525 -0.481178 -1.148102
  C 5.002383 -0.836543 -2.033918
  C 4.604497 -1.371878 -3.368203
  H 3.576313 -1.482040 -3.643194
  O 5.649656 -0.765062 -1.855996
  H 4.073797 1.429007 1.252340
  H 4.073981 -0.200230 1.906900
  H 1.894759 0.243729 3.028464
  H 1.894619 1.884025 2.369503
  H 2.874269 -0.675635 -1.631752
  H 5.376007 -0.185981 -0.412999
  H 5.092884 -2.348624 -3.463533
  H 5.093165 -0.732082 -4.112215
  H 5.201580 -0.233183 -0.529836
 20
 0.000000
  H 1.690959 0.070382 0.226230
  C 2.756507 0.106851 0.316724
  C 3.423299 0.601598 1.548012
  C 2.528746 1.062722 2.695995
  H 3.114932 1.396466 3.526604
  C 3.485022 -0.333466 -0.779695
  C 4.670909 -0.474699 -1.131962
  C 5.028937 -0.844856 -2.054639
  C 4.614464 -1.378449 -3.384569
  H 3.582925 -1.484184 -3.648514
  O 5.614917 -0.780571 -1.894635
  H 4.077284 1.436174 1.270208
  H 4.077459 -0.193063 1.924767
  H 1.887681 0.243724 3.028452
  H 1.887551 1.884021 2.369492
  H 2.908317 -0.672355 -1.623582
  H 5.417839 -0.181763 -0.402498
  H 5.097597 -2.357285 -3.485106
  H 5.097872 -0.740747 -4.133796
  H 5.062234 -0.230342 -0.522729
 20
 0.000000
  H 1.701434 0.071884 0.229963
  C 2.766123 0.111687 0.328776
  C 3.421726 0.608505 1.565230
  C 2.516793 1.066813 2.706186
  H 3.095426 1.402381 3.541345
  C 3.504556 -0.326333 -0.761914
  C 4.701579 -0.463251 -1.103425
  C 5.061283 -0.858272 -2.088077
  C 4.624754 -1.389426 -3.411918
  H 3.588948 -1.489226 -3.661064
  O 5.602288 -0.801551 -1.946910
  H 4.075244 1.445129 1.292532
  H 4.075408 -0.184108 1.947093
  H 1.875717 0.245808 3.033636
  H 1.875599 1.886104 2.374674
  H 2.935524 -0.667016 -1.610276
  H 5.451370 -0.171330 -0.376492
  H 5.100771 -2.371018 -3.519320
  H 5.101042 -0.754482 -4.168018
  H 4.957468 -0.228378 -0.517805
 20
 0.000000
  H 1.704882 0.076665 0.241862
  C 2.768602 0.119923 0.349298
  C 3.412550 0.618851 1.591016
  C 2.496920 1.074206 2.724596
  H 3.067676 1.411640 3.564411
  C 3.517265 -0.315686 -0.735368
  C 4.728276 -0.446152 -1.060794
  C 5.101705 -0.880249 -2.142844
  C 4.635362 -1.407881 -3.457901
  H 3.594154 -1.499571 -3.686837
  O 5.618969 -0.831184 -2.020749
  H 4.065538 1.457594 1.323610
  H 4.065686 -0.171641 1.978174
  H 1.855880 0.251121 3.046854
  H 1.855777 1.891416 2.387889
  H 2.956233 -0.658204 -1.588308
  H 5.478272 -0.154306 -0.334043
  H 5.101521 -2.393151 -3.574471
  H 5.101790 -0.776618 -4.223176
  H 4.891185 -0.222507 -0.503138
 20
 0.000000
  H 1.699225 0.085176 0.263046
  C 2.761928 0.131775 0.378831
  C 3.394534 0.632712 1.625560
  C 2.468604 1.085174 2.751910
  H 3.031685 1.424391 3.596176
  C 3.520450 -0.301467 -0.699917
  C 4.747472 -0.425805 -1.010056
  C 5.145481 -0.909928 -2.216803
  C 4.644712 -1.433169 -3.520915
  H 3.597796 -1.515372 -3.726213
  O 5.668060 -0.867725 -2.111806
  H 4.046963 1.473506 1.363279
  H 4.047091 -0.155728 2.017846
  H 1.827644 0.260075 3.069135
  H 1.827560 1.900368 2.410168
  H 2.967212 -0.645737 -1.557231
  H 5.496290 -0.133543 -0.282258
  H 5.099143 -2.422622 -3.647907
  H 5.099415 -0.806093 -4.296619
  H 4.875763 -0.209051 -0.469564
 20
 0.000000
  H 1.689483 0.094968 0.287425
  C 2.751090 0.144912 0.411564
  C 3.372291 0.647824 1.663224
  C 2.436111 1.097357 2.782250
  H 2.991463 1.438336 3.630914
  C 3.519434 -0.285928 -0.661179
  C 4.759172 -0.404736 -0.957515
  C 5.183652 -0.939525 -2.290549
  C 4.650370 -1.458290 -3.583515
  H 3.598596 -1.531410 -3.766185
  O 5.725247 -0.903491 -2.200931
  H 4.024112 1.490670 1.406070
  H 4.024221 -0.138562 2.060641
  H 1.795276 0.270240 3.094435
  H 1.795211 1.910533 2.435464
  H 2.974043 -0.631929 -1.522814
  H 5.506374 -0.111906 -0.228286
  H 5.093377 -2.451629 -3.720185
  H 5.093653 -0.835101 -4.368903
  H 4.878294 -0.191642 -0.426144
 20
 0.000000
  H 1.677519 0.105567 0.313809
  C 2.737855 0.159124 0.446976
  C 3.346666 0.664132 1.703869
  C 2.399472 1.110460 2.814882
  H 2.946418 1.453316 3.668236
  C 3.516762 -0.269082 -0.619183
  C 4.765854 -0.382047 -0.900936
  C 5.215820 -0.967176 -2.359450
  C 4.651670 -1.481394 -3.641088
  H 3.595775 -1.545777 -3.801995
  O 5.780829 -0.937355 -2.285317
  H 3.997778 1.509198 1.452258
  H 3.997866 -0.120033 2.106831
  H 1.758824 0.281161 3.121615
  H 1.758780 1.921452 2.462643
  H 2.979904 -0.616927 -1.485423
  H 5.511029 -0.088506 -0.169920
  H 5.083511 -2.478359 -3.786793
  H 5.083792 -0.861834 -4.435515
  H 4.877200 -0.172239 -0.377753
