 32
 0.000000
  C 0.913174 0.048673 0.273151
  C 2.408797 0.059146 0.087450
  C 3.244471 -0.012522 1.357692
  C 2.526360 -0.088361 2.701614
  C 3.517958 -0.153539 3.856779
  C 2.999023 0.127499 -1.123893
  C 2.354947 0.204919 -2.495941
  C 0.844596 0.217448 -2.717876
  C 0.515145 0.301377 -4.205319
  C 4.456197 0.132471 -1.211914
  C 5.195559 0.195128 -2.322449
  O 6.555000 0.196210 -2.341514
  H 0.592769 -0.009936 1.311782
  H 0.473026 -0.819226 -0.210027
  H 0.473027 0.965418 -0.109326
  H 3.889937 0.871493 1.389749
  H 3.889934 -0.894534 1.290101
  H 1.892622 -0.977325 2.740678
  H 1.892621 0.790559 2.840435
  H 4.153229 -1.033371 3.776609
  H 2.984886 -0.206966 4.803527
  H 4.153226 0.729725 3.876089
  H 2.741227 -0.643610 -3.071075
  H 2.741226 1.112769 -2.971966
  H 0.392133 1.078530 -2.228185
  H 0.392137 -0.693260 -2.328165
  H 0.920726 1.210480 -4.644878
  H -0.563240 0.309402 -4.347525
  H 0.920727 -0.552509 -4.744360
  H 5.001727 0.079894 -0.280123
  H 4.817683 0.251980 -3.329904
  H 6.884918 0.145080 -1.435368
 32
 3.158465
  C 0.877371 0.050563 0.239599
  C 2.352258 0.059127 0.087771
  C 3.208398 -0.012192 1.351818
  C 2.519812 -0.089216 2.716745
  C 3.561720 -0.152019 3.829828
  C 2.971431 0.126620 -1.108312
  C 2.343489 0.204468 -2.487974
  C 0.833369 0.217586 -2.720399
  C 0.547026 0.302095 -4.218043
  C 4.429708 0.131385 -1.192671
  C 5.177251 0.193691 -2.296987
  O 6.539619 0.193856 -2.299821
  H 0.792226 -0.008649 1.288896
  H 0.399269 -0.816229 -0.221513
  H 0.399269 0.963730 -0.121075
  H 3.855004 0.871801 1.374394
  H 3.855000 -0.893105 1.274811
  H 1.891181 -0.981285 2.780401
  H 1.891172 0.790029 2.880350
  H 4.194326 -1.029875 3.715976
  H 3.075251 -0.206838 4.801335
  H 4.194324 0.733072 3.815455
  H 2.742459 -0.643866 -3.054764
  H 2.742455 1.111179 -2.955724
  H 0.373519 1.077835 -2.234638
  H 0.373529 -0.691843 -2.334505
  H 0.971629 1.209926 -4.641694
  H -0.526127 0.312236 -4.397802
  H 0.971622 -0.552299 -4.741129
  H 4.976600 0.078817 -0.261028
  H 4.805976 0.250652 -3.306440
  H 6.866428 0.142592 -1.391250
 32
 11.425093
  C 0.845813 0.051563 0.222008
  C 2.326557 0.059876 0.074646
  C 3.177771 -0.011237 1.334941
  C 2.502162 -0.088795 2.709339
  C 3.562096 -0.150778 3.807834
  C 2.972610 0.127018 -1.115287
  C 2.354416 0.204697 -2.491991
  C 0.847513 0.217284 -2.714974
  C 0.546958 0.301574 -4.208834
  C 4.433497 0.131164 -1.188726
  C 5.186674 0.193070 -2.285965
  O 6.544010 0.192735 -2.279941
  H 0.984606 -0.006970 1.259303
  H 0.360062 -0.804430 -0.185668
  H 0.360064 0.947984 -0.086782
  H 3.823869 0.870840 1.353645
  H 3.823858 -0.889798 1.254297
  H 1.879395 -0.983414 2.787386
  H 1.879410 0.791340 2.887530
  H 4.194339 -1.027177 3.682626
  H 3.091588 -0.205987 4.786285
  H 4.194307 0.734101 3.782018
  H 2.753400 -0.643781 -3.055477
  H 2.753420 1.111197 -2.956468
  H 0.394229 1.078206 -2.222815
  H 0.394214 -0.693547 -2.322775
  H 0.969875 1.208620 -4.635545
  H -0.526483 0.311301 -4.381110
  H 0.969877 -0.551739 -4.734883
  H 4.975516 0.078753 -0.259703
  H 4.822545 0.250144 -3.297640
  H 6.864975 0.141320 -1.368514
 32
 24.544568
  C 0.807782 0.052463 0.206027
  C 2.306917 0.060316 0.066885
  C 3.171326 -0.011400 1.337967
  C 2.504809 -0.089153 2.715799
  C 3.574425 -0.150503 3.803005
  C 2.973248 0.127066 -1.116101
  C 2.362973 0.204955 -2.496546
  C 0.854017 0.217492 -2.718676
  C 0.553573 0.301765 -4.212257
  C 4.425306 0.130773 -1.181730
  C 5.185210 0.192672 -2.278892
  O 6.540077 0.192010 -2.267191
  H 1.122846 -0.003556 1.198816
  H 0.310888 -0.807763 -0.171389
  H 0.310889 0.949681 -0.072221
  H 3.816708 0.870501 1.354960
  H 3.816661 -0.889550 1.255650
  H 1.881680 -0.984925 2.800760
  H 1.881691 0.791354 2.900979
  H 4.205500 -1.026122 3.671638
  H 3.112916 -0.205914 4.785181
  H 4.205393 0.734208 3.770975
  H 2.762202 -0.642409 -3.056832
  H 2.762221 1.109984 -2.957970
  H 0.401357 1.078521 -2.225176
  H 0.401339 -0.693608 -2.325146
  H 0.976330 1.208294 -4.638764
  H -0.519473 0.311485 -4.384464
  H 0.976327 -0.551045 -4.738027
  H 4.964358 0.078301 -0.251633
  H 4.826031 0.249714 -3.290082
  H 6.857334 0.140610 -1.356018
 32
 37.997679
  C 0.793735 0.052406 0.207004
  C 2.301633 0.059764 0.076632
  C 3.181027 -0.012110 1.350503
  C 2.509713 -0.090107 2.732695
  C 3.577485 -0.151544 3.821337
  C 2.969002 0.126550 -1.106981
  C 2.364808 0.204896 -2.495502
  C 0.854799 0.218224 -2.731676
  C 0.572093 0.302730 -4.229433
  C 4.410282 0.130578 -1.178277
  C 5.162974 0.193137 -2.287098
  O 6.516722 0.193240 -2.288856
  H 1.235703 -0.000310 1.141256
  H 0.289006 -0.831156 -0.156795
  H 0.289009 0.971278 -0.055086
  H 3.828426 0.871800 1.366267
  H 3.828407 -0.892168 1.266737
  H 1.885048 -0.984860 2.816514
  H 1.885027 0.789559 2.916641
  H 4.208063 -1.026520 3.690646
  H 3.115288 -0.206912 4.802778
  H 4.207979 0.732482 3.789910
  H 2.769257 -0.644840 -3.053856
  H 2.769269 1.112034 -2.954722
  H 0.397718 1.078396 -2.242375
  H 0.397713 -0.691520 -2.342238
  H 1.000399 1.208608 -4.650931
  H -0.499116 0.313163 -4.414337
  H 1.000382 -0.549977 -4.750139
  H 4.958301 0.078101 -0.248068
  H 4.792748 0.249977 -3.294665
  H 6.841673 0.142471 -1.388861
