 32
 0.000000
  C 0.950143 0.144471 0.410089
  C 2.426505 0.138948 0.396446
  C 3.224704 0.604818 1.556184
  C 2.464586 1.098462 2.784862
  C 3.438693 1.535892 3.874351
  C 3.036559 -0.327353 -0.764451
  C 4.413311 -0.408344 -0.967067
  C 5.105469 -0.857666 -2.087272
  C 4.617433 -1.381514 -3.392759
  C 3.128625 -1.504474 -3.699306
  C 2.934785 -2.068529 -5.104891
  O 6.422702 -0.847627 -2.062849
  H 0.531187 0.516956 1.336984
  H 0.574387 -0.865348 0.236324
  H 0.574314 0.753264 -0.414092
  H 3.882893 1.412994 1.217299
  H 3.882752 -0.213286 1.870614
  H 1.828896 0.305429 3.181785
  H 1.829194 1.945920 2.522885
  H 4.073796 0.708963 4.184244
  H 2.895905 1.887005 4.748331
  H 4.074119 2.347211 3.526193
  H 2.375357 -0.643774 -1.551902
  H 5.035818 -0.077782 -0.144299
  H 5.083948 -2.367182 -3.514534
  H 5.084181 -0.753590 -4.162117
  H 2.648468 -0.527067 -3.652446
  H 2.648488 -2.178389 -2.989859
  H 3.384062 -1.418024 -5.851553
  H 1.875651 -2.159676 -5.332009
  H 3.384170 -3.054692 -5.194752
  H 6.799618 -0.512767 -1.227314
 32
 1.773265
  C 0.945621 0.350210 0.339578
  C 2.422135 0.253791 0.352351
  C 3.223099 0.585771 1.561637
  C 2.464663 1.027985 2.814687
  C 3.442449 1.337506 3.947237
  C 3.027995 -0.165823 -0.826433
  C 4.393864 -0.340326 -1.003537
  C 5.089541 -0.707038 -2.153324
  C 4.620404 -1.355779 -3.415495
  C 3.143946 -1.577064 -3.673423
  C 2.951290 -2.288411 -5.012616
  O 6.383934 -0.507523 -2.182961
  H 0.530141 0.662087 1.286094
  H 0.512387 -0.618172 0.063081
  H 0.625845 1.057836 -0.436075
  H 3.926709 1.384643 1.292392
  H 3.833598 -0.285642 1.824401
  H 1.785986 0.236735 3.137748
  H 1.878576 1.924004 2.601917
  H 4.026476 0.458549 4.208247
  H 2.904821 1.662150 4.834630
  H 4.127827 2.131987 3.662840
  H 2.375637 -0.356708 -1.647402
  H 5.011758 -0.105112 -0.140121
  H 5.137928 -2.325202 -3.444105
  H 5.057111 -0.778313 -4.252294
  H 2.608002 -0.623447 -3.713712
  H 2.711898 -2.199107 -2.884640
  H 3.365785 -1.698050 -5.829809
  H 1.892576 -2.437721 -5.211559
  H 3.429321 -3.259598 -5.010294
  H 6.858245 -0.221194 -1.381626
 32
 16.761259
  C 0.938272 0.399895 0.367558
  C 2.413031 0.322786 0.351301
  C 3.222693 0.606912 1.558546
  C 2.451148 1.006168 2.843610
  C 3.419392 1.277671 3.983245
  C 2.989745 -0.096078 -0.858176
  C 4.398333 -0.313473 -1.037469
  C 5.068443 -0.669241 -2.175125
  C 4.626846 -1.348474 -3.420151
  C 3.154869 -1.591847 -3.673227
  C 2.986300 -2.337865 -4.987095
  O 6.397026 -0.428238 -2.257072
  H 0.546547 0.703933 1.333567
  H 0.505257 -0.563663 0.072247
  H 0.599792 1.122726 -0.374906
  H 3.897709 1.441259 1.322999
  H 3.812496 -0.271803 1.806895
  H 1.781160 0.201235 3.124610
  H 1.865234 1.902115 2.632282
  H 4.016258 0.394832 4.202210
  H 2.886099 1.575832 4.880056
  H 4.106629 2.085206 3.713878
  H 2.375014 -0.282138 -1.712263
  H 4.884680 -0.132689 -0.092948
  H 5.127377 -2.314376 -3.422160
  H 5.069099 -0.796637 -4.254196
  H 2.598791 -0.662930 -3.741921
  H 2.709875 -2.205502 -2.893115
  H 3.408421 -1.770784 -5.807825
  H 1.937924 -2.482014 -5.194700
  H 3.464295 -3.319738 -4.947792
  H 7.163162 -0.250228 -1.686153
 32
 19.012277
  C 0.956440 0.691792 0.306224
  C 2.416287 0.440489 0.291831
  C 3.200294 0.521796 1.546504
  C 2.451727 0.916350 2.820556
  C 3.414464 0.970885 4.011017
  C 2.971644 0.136622 -0.934976
  C 4.318200 -0.188985 -1.138404
  C 5.056098 -0.462020 -2.287106
  C 4.672728 -1.310656 -3.463961
  C 3.212502 -1.703007 -3.604658
  C 3.020519 -2.612502 -4.818862
  O 6.280532 -0.005898 -2.365009
  H 0.564297 0.875356 1.301220
  H 0.425830 -0.155880 -0.129104
  H 0.718532 1.552590 -0.313434
  H 4.000065 1.255536 1.393784
  H 3.705147 -0.431384 1.711552
  H 1.668450 0.190685 3.057511
  H 1.983214 1.897362 2.706356
  H 3.857238 0.001538 4.192805
  H 2.887691 1.261777 4.910138
  H 4.216994 1.686739 3.838824
  H 2.300483 0.127859 -1.767293
  H 4.866651 -0.082540 -0.231879
  H 5.273479 -2.210910 -3.375534
  H 5.025937 -0.824585 -4.372476
  H 2.603756 -0.806099 -3.730614
  H 2.875950 -2.219988 -2.701827
  H 3.344504 -2.118153 -5.725984
  H 1.967328 -2.880475 -4.934057
  H 3.592807 -3.524528 -4.710990
  H 7.092615 0.196533 -1.869797
 32
 23.780480
  C 0.918505 0.863722 0.310999
  C 2.356080 0.545346 0.273751
  C 3.181983 0.511747 1.504401
  C 2.500610 0.900662 2.825435
  C 3.474604 0.743271 3.995682
  C 2.898567 0.276104 -0.974678
  C 4.207576 -0.112217 -1.218912
  C 4.983027 -0.340117 -2.363825
  C 4.694126 -1.236333 -3.497667
  C 3.283903 -1.794692 -3.553180
  C 3.124170 -2.771984 -4.725353
  O 6.122367 0.275941 -2.379072
  H 0.566500 1.061436 1.315928
  H 0.341787 0.031675 -0.087751
  H 0.712145 1.736288 -0.295161
  H 4.036726 1.180815 1.346830
  H 3.585791 -0.493194 1.615153
  H 1.632439 0.261889 3.011985
  H 2.158012 1.942196 2.787074
  H 3.809408 -0.285842 4.085461
  H 2.992441 1.026013 4.930613
  H 4.347209 1.381456 3.865293
  H 2.234882 0.386425 -1.826234
  H 4.767117 -0.162993 -0.294458
  H 5.421320 -2.063374 -3.413114
  H 4.936380 -0.728543 -4.444408
  H 2.559462 -0.983011 -3.662011
  H 3.044540 -2.307004 -2.612589
  H 3.299542 -2.268823 -5.672422
  H 2.114569 -3.187796 -4.744214
  H 3.830725 -3.594252 -4.646210
  H 6.955890 0.371550 -1.901170
 32
 30.683112
  C 0.956364 1.116702 0.319377
  C 2.349594 0.624242 0.262526
  C 3.176604 0.443786 1.485318
  C 2.521541 0.791041 2.827507
  C 3.488698 0.540913 3.969311
  C 2.880510 0.354732 -1.007315
  C 4.155713 -0.087934 -1.259463
  C 4.883161 -0.186198 -2.460291
  C 4.673753 -1.171058 -3.521642
  C 3.307683 -1.861601 -3.492056
  C 3.197257 -2.922080 -4.571288
  O 5.939214 0.587022 -2.516229
  H 0.616696 1.318238 1.327990
  H 0.284800 0.382786 -0.144555
  H 0.858262 2.028930 -0.270491
  H 4.071769 1.073263 1.373992
  H 3.503932 -0.598683 1.536517
  H 1.639110 0.174048 2.987605
  H 2.213638 1.829687 2.849941
  H 3.785484 -0.499080 4.003247
  H 3.025120 0.792962 4.917483
  H 4.379942 1.155274 3.867317
  H 2.247655 0.580100 -1.857501
  H 4.758148 -0.328551 -0.395047
  H 5.467895 -1.914734 -3.391452
  H 4.851432 -0.716128 -4.502708
  H 2.510912 -1.122543 -3.624487
  H 3.148174 -2.316843 -2.516437
  H 3.319618 -2.485692 -5.558121
  H 2.233593 -3.414642 -4.526841
  H 3.964486 -3.675720 -4.444946
  H 6.855662 0.649004 -2.171426
 32
 39.126959
  C 1.004476 1.423042 0.524296
  C 2.337183 0.824247 0.347510
  C 3.211759 0.477316 1.494847
  C 2.658196 0.696065 2.898946
  C 3.703934 0.310003 3.950112
  C 2.761444 0.603760 -0.981898
  C 3.968258 0.086615 -1.360236
  C 4.567218 -0.052516 -2.666299
  C 4.564590 -1.201796 -3.578051
  C 3.254658 -1.997071 -3.572474
  C 3.331372 -3.199813 -4.525507
  O 5.529143 0.847450 -2.745071
  H 0.735414 1.568114 1.562977
  H 0.247984 0.790364 0.050647
  H 0.958499 2.381473 0.014670
  H 4.134588 1.057136 1.403906
  H 3.499336 -0.577094 1.409872
  H 1.762948 0.087634 3.051262
  H 2.393036 1.743688 3.045549
  H 3.954095 -0.749084 3.878139
  H 3.321906 0.492094 4.951332
  H 4.615687 0.890004 3.825607
  H 2.087528 0.914128 -1.764945
  H 4.650559 -0.243419 -0.594146
  H 5.394785 -1.869675 -3.264885
  H 4.811497 -0.861420 -4.606477
  H 2.431873 -1.349503 -3.886387
  H 3.041656 -2.343448 -2.559227
  H 3.499949 -2.877444 -5.551810
  H 2.402632 -3.765536 -4.498522
  H 4.142736 -3.869343 -4.238596
  H 6.482456 0.874134 -2.596588
 32
 56.065782
  C 1.051266 1.589788 0.621606
  C 2.359610 0.950930 0.374692
  C 3.237515 0.512625 1.493382
  C 2.706711 0.695678 2.914964
  C 3.723857 0.182259 3.929975
  C 2.733298 0.773332 -0.950559
  C 3.891634 0.162155 -1.376486
  C 4.314852 -0.098105 -2.741132
  C 4.493071 -1.208407 -3.655253
  C 3.316892 -2.186649 -3.608190
  C 3.534225 -3.342636 -4.578045
  O 5.173993 0.956128 -2.627881
  H 0.828911 1.709550 1.674228
  H 0.259210 0.995064 0.165158
  H 1.021363 2.568167 0.142423
  H 4.186465 1.054839 1.415473
  H 3.463937 -0.548968 1.363430
  H 1.768308 0.153906 3.046916
  H 2.526374 1.753334 3.115278
  H 3.922828 -0.876757 3.780069
  H 3.349171 0.313544 4.941515
  H 4.663192 0.724527 3.846276
  H 2.065658 1.145355 -1.717817
  H 4.530922 -0.293163 -0.631784
  H 5.414881 -1.752849 -3.411881
  H 4.625175 -0.824134 -4.672493
  H 2.394978 -1.663742 -3.867981
  H 3.209731 -2.576893 -2.596637
  H 3.615265 -2.981909 -5.599868
  H 2.701221 -4.037135 -4.531974
  H 4.443454 -3.890483 -4.333944
  H 6.145280 1.065608 -2.551849
 32
 67.918849
  C 1.111415 1.690458 0.647501
  C 2.397902 0.979684 0.382211
  C 3.269453 0.515007 1.515231
  C 2.749126 0.745795 2.933625
  C 3.730721 0.181936 3.957140
  C 2.735851 0.769172 -0.903699
  C 3.928337 0.088885 -1.347869
  C 4.223164 -0.255190 -2.718497
  C 4.491773 -1.294293 -3.691020
  C 3.366244 -2.335064 -3.702050
  C 3.636000 -3.410423 -4.747177
  O 4.876062 0.907147 -2.312605
  H 0.918375 1.830504 1.703107
  H 0.283082 1.129569 0.219068
  H 1.121558 2.666316 0.165823
  H 4.238295 1.014914 1.434871
  H 3.443894 -0.558343 1.402842
  H 1.784049 0.254364 3.066908
  H 2.624189 1.813374 3.123380
  H 3.867863 -0.887824 3.814401
  H 3.360040 0.342103 4.966899
  H 4.700404 0.668074 3.873332
  H 2.086199 1.133894 -1.684872
  H 4.541508 -0.380023 -0.581693
  H 5.445772 -1.809034 -3.488975
  H 4.591760 -0.842310 -4.683151
  H 2.418329 -1.844435 -3.922018
  H 3.284409 -2.796267 -2.717597
  H 3.695092 -2.977869 -5.743408
  H 2.836120 -4.146381 -4.746628
  H 4.570017 -3.927978 -4.541820
  H 5.817294 1.211271 -2.244145
