 17
 0.000000
  H 1.390837 0.180523 0.499668
  C 2.459196 0.133412 0.382660
  H 3.086926 0.459741 1.194817
  C 2.991639 -0.335534 -0.784823
  C 4.378765 -0.411351 -0.974482
  C 5.101594 -0.859467 -2.091967
  C 4.622056 -1.381281 -3.392464
  C 3.139524 -1.504289 -3.698640
  H 3.025025 -1.906325 -4.700588
  O 6.407817 -0.838170 -2.039516
  H 2.319144 -0.648750 -1.564540
  H 4.981999 -0.074903 -0.137044
  H 5.097428 -2.362587 -3.515234
  H 5.097415 -0.757111 -4.159597
  H 2.646801 -0.536101 -3.671188
  H 2.647023 -2.185115 -3.009572
  H 6.785072 -0.502980 -1.201948
 17
 15.968601
  H 1.469753 0.223639 0.606938
  C 2.527205 0.147406 0.417262
  H 3.196242 0.463218 1.203907
  C 2.991446 -0.326417 -0.763054
  C 4.430409 -0.431152 -1.024291
  C 5.032129 -0.878575 -2.140099
  C 4.628066 -1.403154 -3.447692
  C 3.157412 -1.528685 -3.758842
  H 3.049327 -1.931040 -4.761652
  O 6.267489 -0.779173 -1.892370
  H 2.292026 -0.633497 -1.528137
  H 5.024577 -0.095268 -0.187246
  H 5.115249 -2.372368 -3.554415
  H 5.114925 -0.776324 -4.194698
  H 2.661672 -0.562177 -3.735544
  H 2.662661 -2.211670 -3.073767
  H 6.565217 -0.434341 -1.028915
 17
 59.078830
  H 1.510988 0.249131 0.670685
  C 2.560353 0.156891 0.441077
  H 3.250346 0.465861 1.211533
  C 2.980639 -0.319598 -0.747003
  C 4.506215 -0.443165 -1.054973
  C 4.999359 -0.893130 -2.176933
  C 4.641653 -1.423783 -3.499472
  C 3.165321 -1.545942 -3.801150
  H 3.040084 -1.947671 -4.801748
  O 6.175025 -0.739833 -1.795511
  H 2.282049 -0.622866 -1.504373
  H 5.025092 -0.092107 -0.177902
  H 5.132613 -2.392318 -3.595558
  H 5.131864 -0.790043 -4.238749
  H 2.675290 -0.577126 -3.767604
  H 2.676604 -2.223402 -3.106867
  H 6.455725 -0.392268 -0.922175
 17
 108.022782
  H 1.482536 0.191942 0.739794
  C 2.533790 0.168276 0.476978
  H 3.202344 0.486588 1.250759
  C 2.892138 -0.253371 -0.700446
  C 4.649217 -0.425929 -1.080676
  C 4.966401 -0.908341 -2.217066
  C 4.638136 -1.445167 -3.540905
  C 3.161092 -1.563677 -3.830892
  H 3.032819 -1.976682 -4.826910
  O 6.197145 -0.690145 -1.769642
  H 2.270142 -0.552848 -1.521302
  H 5.048055 -0.108394 -0.153914
  H 5.134567 -2.426514 -3.595447
  H 5.143371 -0.796435 -4.274651
  H 2.678521 -0.587289 -3.809209
  H 2.673256 -2.234682 -3.121552
  H 6.536331 -0.411407 -0.897506
 17
 132.859728
  H 1.362902 0.265820 0.864086
  C 2.396722 0.200543 0.528576
  H 3.120362 0.479864 1.283192
  C 2.678250 -0.249937 -0.646401
  C 4.834934 -0.446986 -1.118693
  C 5.008422 -0.932478 -2.272949
  C 4.682637 -1.462714 -3.571639
  C 3.177743 -1.560194 -3.830857
  H 3.017962 -1.968707 -4.827159
  O 6.317802 -0.706854 -1.802542
  H 2.116444 -0.578350 -1.485296
  H 5.077480 -0.068427 -0.139431
  H 5.154183 -2.449435 -3.655256
  H 5.163066 -0.822828 -4.322673
  H 2.712251 -0.580663 -3.792833
  H 2.700309 -2.222657 -3.115707
  H 6.748382 -0.450150 -0.970211
 17
 143.421858
  H 1.184579 0.255255 0.981255
  C 2.197502 0.233784 0.576686
  H 2.949713 0.498899 1.298136
  C 2.448613 -0.211199 -0.605519
  C 5.053213 -0.464918 -1.174008
  C 5.105124 -0.958708 -2.339399
  C 4.721543 -1.487629 -3.618163
  C 3.209532 -1.538826 -3.790250
  H 2.978675 -1.948541 -4.768824
  O 6.487270 -0.744230 -1.871513
  H 1.862535 -0.562250 -1.426933
  H 5.196061 -0.067199 -0.201262
  H 5.171524 -2.482887 -3.712199
  H 5.188297 -0.856751 -4.385355
  H 2.776278 -0.542523 -3.720525
  H 2.758971 -2.182387 -3.040992
  H 6.994929 -0.507605 -1.069318
 17
 142.782272
  H 0.966395 0.277169 1.153558
  C 1.964291 0.253576 0.698870
  H 2.753625 0.486364 1.407592
  C 2.176233 -0.088405 -0.535401
  C 5.224636 -0.462921 -1.253272
  C 5.211512 -0.968682 -2.415449
  C 4.792406 -1.505488 -3.673041
  C 3.265863 -1.553487 -3.764821
  H 2.982648 -1.978391 -4.731804
  O 6.631284 -0.761237 -1.998489
  H 1.576941 -0.352393 -1.388184
  H 5.348048 -0.207456 -0.148830
  H 5.221683 -2.509515 -3.775889
  H 5.220927 -0.895467 -4.480569
  H 2.846514 -0.555885 -3.701493
  H 2.847534 -2.179772 -2.978851
  H 7.233747 -0.575321 -1.248592
