 17
 0.000000
  H 1.439095 0.112299 0.331401
  C 2.520107 0.111446 0.329216
  C 3.196165 0.597137 1.535163
  H 2.484690 0.903220 2.295728
  C 3.145269 -0.347148 -0.810876
  C 4.531831 -0.409237 -0.965570
  C 5.212194 -0.863954 -2.101031
  C 4.572275 -1.357362 -3.333821
  H 3.490927 -1.340262 -3.292239
  O 6.516500 -0.876699 -2.133819
  H 3.848139 1.440421 1.298964
  H 3.848683 -0.174140 1.949074
  H 2.510818 -0.672458 -1.621087
  H 5.139503 -0.076028 -0.134190
  H 4.920813 -2.371139 -3.534070
  H 4.921449 -0.762114 -4.178191
  H 6.963452 -0.553570 -1.326987
 17
 0.171960
  H 1.448610 0.296587 0.234493
  C 2.524075 0.199382 0.284157
  C 3.172438 0.525663 1.557634
  H 2.449501 0.830459 2.308372
  C 3.170548 -0.235639 -0.850801
  C 4.560319 -0.361595 -0.965684
  C 5.222079 -0.844607 -2.097303
  C 4.555413 -1.439316 -3.274038
  H 3.484264 -1.548682 -3.156808
  O 6.521599 -0.798754 -2.201070
  H 3.902992 1.325494 1.424440
  H 3.737176 -0.329252 1.933212
  H 2.564173 -0.465456 -1.712146
  H 5.169620 -0.034727 -0.133819
  H 5.002124 -2.415661 -3.474939
  H 4.772419 -0.830629 -4.154976
  H 6.994128 -0.414710 -1.437436
 17
 0.987854
  H 1.471301 0.410067 0.114949
  C 2.535507 0.256510 0.228028
  C 3.117239 0.494432 1.551540
  H 2.374942 0.838505 2.259996
  C 3.235416 -0.171123 -0.877884
  C 4.626552 -0.303298 -0.941656
  C 5.256234 -0.829442 -2.069805
  C 4.519761 -1.461139 -3.190974
  H 3.547090 -1.844616 -2.919153
  O 6.540527 -0.826494 -2.284419
  H 3.923326 1.225582 1.494294
  H 3.577548 -0.416541 1.934384
  H 2.680230 -0.397899 -1.781153
  H 5.229890 0.049649 -0.120736
  H 5.127137 -2.272605 -3.587823
  H 4.417419 -0.740493 -4.002397
  H 7.091049 -0.439420 -1.572177
 17
 9.209893
  H 1.568643 0.716354 -0.019154
  C 2.574321 0.373491 0.182240
  C 2.999591 0.281174 1.585463
  H 2.232607 0.639221 2.263632
  C 3.356001 0.015564 -0.884095
  C 4.750282 -0.035859 -1.010815
  C 5.283925 -0.725353 -2.082451
  C 4.434066 -1.516097 -3.025005
  H 3.547667 -1.972426 -2.603433
  O 6.542709 -0.857595 -2.418935
  H 3.921218 0.845788 1.745914
  H 3.242903 -0.753107 1.835541
  H 2.854328 -0.405943 -1.784043
  H 5.385263 0.510606 -0.329625
  H 5.047515 -2.381208 -3.313849
  H 4.291210 -0.989495 -3.965707
  H 7.183939 -0.376966 -1.849516
 17
 26.497198
  H 1.746321 0.999202 -0.121599
  C 2.658392 0.490216 0.159332
  C 2.837064 0.166357 1.586334
  H 2.038006 0.579744 2.192107
  C 3.542768 0.159007 -0.827832
  C 4.909894 0.096105 -1.075800
  C 5.324503 -0.726024 -2.105311
  C 4.348883 -1.554733 -2.873889
  H 3.721640 -2.224487 -2.293708
  O 6.558819 -0.854164 -2.524711
  H 3.797904 0.538322 1.947665
  H 2.858431 -0.914323 1.720324
  H 3.074896 -0.467804 -1.708096
  H 5.596738 0.745368 -0.553802
  H 4.981511 -2.328502 -3.360694
  H 3.968382 -1.050393 -3.754424
  H 7.206457 -0.281139 -2.068253
 17
 58.972594
  H 1.853933 1.033853 -0.214025
  C 2.737138 0.536656 0.123630
  C 2.714314 0.068943 1.550515
  H 1.778730 0.322906 2.026462
  C 3.748944 0.346627 -0.733073
  C 5.089983 0.245134 -1.107010
  C 5.368437 -0.657714 -2.094854
  C 4.224983 -1.477527 -2.652633
  H 3.775804 -2.220210 -1.982405
  O 6.530879 -0.961947 -2.649832
  H 3.540217 0.502639 2.120008
  H 2.839837 -1.007640 1.590514
  H 3.270891 -0.511018 -1.796105
  H 5.823891 0.899610 -0.685741
  H 4.781550 -2.298133 -3.229503
  H 3.781830 -1.061175 -3.558068
  H 7.264040 -0.385361 -2.360094
 17
 66.442417
  H 2.093708 1.294035 -0.207668
  C 2.882918 0.662589 0.187356
  C 2.604572 0.072474 1.555702
  H 1.668845 0.464284 1.958303
  C 3.949795 0.451246 -0.511493
  C 5.151563 0.265411 -1.084656
  C 5.358119 -0.676593 -2.085824
  C 4.184402 -1.492543 -2.591396
  H 3.879388 -2.347940 -1.915092
  O 6.537528 -0.902797 -2.720357
  H 3.409974 0.321730 2.246323
  H 2.539210 -1.009789 1.510367
  H 3.323332 -0.999137 -2.050271
  H 5.958017 0.911125 -0.772205
  H 4.621369 -2.288107 -3.250330
  H 3.690633 -1.046267 -3.495812
  H 7.229082 -0.307331 -2.418653
 17
 65.692661
  H 2.210829 1.501147 -0.071479
  C 2.929957 0.748674 0.250987
  C 2.579081 0.050043 1.545946
  H 1.650283 0.447564 1.952223
  C 3.980840 0.506695 -0.467393
  C 5.161456 0.246495 -1.060623
  C 5.328382 -0.671170 -2.089054
  C 4.160098 -1.476592 -2.620517
  H 3.696767 -2.129485 -1.822404
  O 6.503186 -0.910280 -2.739291
  H 3.372328 0.200295 2.280964
  H 2.462280 -1.023984 1.397180
  H 3.244582 -0.874583 -2.380758
  H 6.011183 0.834671 -0.733858
  H 4.564770 -2.474384 -2.955095
  H 3.968313 -1.267332 -3.701822
  H 7.217234 -0.342305 -2.428245
 17
 66.348549
  H 2.263528 1.507084 -0.035222
  C 2.953781 0.728737 0.279724
  C 2.562850 0.011752 1.552336
  H 1.629383 0.410163 1.939678
  C 4.008390 0.478307 -0.424251
  C 5.168107 0.238943 -1.055950
  C 5.323891 -0.640747 -2.111096
  C 4.172419 -1.469950 -2.640592
  H 3.463122 -1.793488 -1.815126
  O 6.485722 -0.841677 -2.788340
  H 3.334612 0.142996 2.309522
  H 2.441227 -1.056501 1.386046
  H 3.303696 -0.758339 -2.757078
  H 6.024988 0.812882 -0.725045
  H 4.443875 -2.558418 -2.534766
  H 4.233234 -1.582870 -3.745110
  H 7.198222 -0.274709 -2.471465
 17
 68.572673
  H 2.233978 1.449534 -0.011436
  C 2.943587 0.684237 0.291827
  C 2.577793 -0.052077 1.559019
  H 1.638543 0.318750 1.954160
  C 3.998247 0.460946 -0.422342
  C 5.164799 0.244653 -1.059323
  C 5.335506 -0.630213 -2.118152
  C 4.197298 -1.497390 -2.626137
  H 3.202165 -1.406259 -2.065658
  O 6.492409 -0.807350 -2.810672
  H 3.349647 0.091930 2.312139
  H 2.483140 -1.119405 1.383964
  H 3.509817 -0.676854 -3.034760
  H 6.014869 0.824793 -0.721190
  H 4.250498 -2.477448 -2.098183
  H 4.404791 -1.880562 -3.639353
  H 7.188747 -0.204515 -2.525937
 17
 74.585987
  H 2.280013 1.503037 0.051515
  C 2.953362 0.699318 0.334164
  C 2.549529 -0.068239 1.569324
  H 1.622635 0.325824 1.974457
  C 4.000841 0.458191 -0.381630
  C 5.143536 0.252155 -1.056162
  C 5.296680 -0.606555 -2.135665
  C 4.156688 -1.590445 -2.626064
  H 3.066615 -1.538057 -2.357887
  O 6.418070 -0.773748 -2.869579
  H 3.322766 0.012614 2.331393
  H 2.411864 -1.123853 1.346825
  H 3.871707 -0.496093 -2.856619
  H 6.013045 0.805019 -0.720843
  H 4.326309 -2.457575 -1.962525
  H 4.382865 -1.976646 -3.626582
  H 7.124768 -0.159694 -2.629356
 17
 68.406624
  H 2.361870 1.537169 0.088796
  C 2.987182 0.697430 0.374069
  C 2.501082 -0.097186 1.555916
  H 1.570998 0.314865 1.933414
  C 4.053500 0.450484 -0.306382
  C 5.146631 0.262424 -1.042039
  C 5.229962 -0.569102 -2.188189
  C 4.131078 -1.678900 -2.592947
  H 3.084643 -1.603134 -2.269694
  O 6.315204 -0.699215 -2.974425
  H 3.239341 -0.075010 2.353209
  H 2.338217 -1.137687 1.281214
  H 4.126209 -0.359192 -2.759360
  H 6.046116 0.786237 -0.740901
  H 4.428711 -2.534912 -1.959037
  H 4.288675 -2.022396 -3.614362
  H 7.037345 -0.094159 -2.737421
 17
 49.427842
  H 2.453976 1.601746 0.194787
  C 2.982527 0.673935 0.383526
  C 2.447010 -0.153992 1.513896
  H 1.560636 0.303549 1.934582
  C 4.026891 0.419908 -0.325926
  C 5.099033 0.286724 -1.095919
  C 5.139487 -0.515302 -2.306932
  C 4.213473 -1.787566 -2.449106
  H 3.207076 -1.668144 -2.061929
  O 6.228831 -0.628679 -3.090937
  H 3.197840 -0.238293 2.294440
  H 2.201901 -1.159293 1.174577
  H 4.203773 -0.117013 -2.860715
  H 6.004346 0.808147 -0.811647
  H 4.655378 -2.553498 -1.793673
  H 4.278820 -2.186253 -3.455077
  H 6.951618 -0.029603 -2.841333
 17
 38.375980
  H 2.640624 1.734732 0.405359
  C 3.050503 0.729861 0.455312
  C 2.385247 -0.197810 1.410879
  H 1.565155 0.293590 1.923134
  C 4.048863 0.464098 -0.326780
  C 5.078049 0.294620 -1.127890
  C 5.027077 -0.503245 -2.382731
  C 4.278850 -1.844605 -2.304677
  H 3.286084 -1.717492 -1.887924
  O 6.157115 -0.615432 -3.140240
  H 3.116418 -0.532747 2.147107
  H 2.011076 -1.083099 0.900289
  H 4.250510 0.082029 -2.951227
  H 6.029100 0.747257 -0.866396
  H 4.836494 -2.521438 -1.656920
  H 4.242857 -2.295301 -3.290934
  H 6.848595 0.021352 -2.903748
 17
 35.952129
  H 2.670477 1.769597 0.516265
  C 3.054658 0.754419 0.461817
  C 2.400151 -0.248250 1.333465
  H 1.516894 0.160493 1.809284
  C 4.062027 0.544922 -0.343833
  C 5.075620 0.324482 -1.129667
  C 4.994639 -0.504107 -2.392451
  C 4.242417 -1.818423 -2.221129
  H 3.262615 -1.645879 -1.792042
  O 6.188919 -0.735225 -3.028289
  H 3.110099 -0.548531 2.105993
  H 2.141827 -1.149256 0.782605
  H 4.348938 0.152000 -3.024297
  H 6.041930 0.757897 -0.903071
  H 4.813376 -2.481815 -1.576851
  H 4.138852 -2.303443 -3.187443
  H 6.789178 0.027488 -3.007743
