 17
 0.000000
  H 1.426681 0.188031 0.519236
  C 2.491345 0.133409 0.383342
  H 3.128162 0.457341 1.189206
  C 3.008188 -0.337360 -0.788637
  C 4.395220 -0.415437 -0.983399
  C 5.113878 -0.864225 -2.102818
  C 4.627006 -1.384727 -3.400834
  C 3.143251 -1.504796 -3.700374
  H 3.025281 -1.906623 -4.702318
  O 6.420705 -0.844444 -2.053741
  H 2.330583 -0.648821 -1.564320
  H 4.992851 -0.077532 -0.141272
  H 5.099467 -2.367143 -3.525710
  H 5.099674 -0.761045 -4.170036
  H 2.650696 -0.536656 -3.672490
  H 2.650662 -2.185367 -3.011298
  H 6.793478 -0.508577 -1.214083
 17
 2.298024
  H 1.408432 0.030920 0.569846
  C 2.449693 0.159419 0.328984
  H 3.012039 0.852001 0.932795
  C 3.023103 -0.514520 -0.706578
  C 4.385478 -0.360145 -1.003589
  C 5.119180 -0.868108 -2.086370
  C 4.619511 -1.376744 -3.381973
  C 3.134640 -1.372850 -3.696928
  H 3.002346 -1.622387 -4.746311
  O 6.427624 -0.772977 -2.063432
  H 2.420297 -1.197560 -1.282051
  H 4.949416 0.271865 -0.327311
  H 5.015122 -2.396287 -3.482812
  H 5.162960 -0.812820 -4.151670
  H 2.691329 -0.394828 -3.528532
  H 2.598285 -2.119370 -3.119516
  H 6.840274 -0.826739 -1.180377
 17
 10.682780
  H 1.351061 0.064322 0.547272
  C 2.400142 0.169534 0.331401
  H 2.958452 0.867843 0.933853
  C 2.984815 -0.519102 -0.686188
  C 4.355754 -0.374189 -0.959725
  C 5.104330 -0.835809 -2.044388
  C 4.632360 -1.338154 -3.347612
  C 3.152699 -1.396575 -3.675633
  H 3.038078 -1.668356 -4.721611
  O 6.415060 -0.596126 -2.015024
  H 2.383135 -1.186994 -1.279656
  H 4.919598 0.273699 -0.297310
  H 5.060440 -2.345747 -3.455709
  H 5.170134 -0.753719 -4.106501
  H 2.668572 -0.436277 -3.520368
  H 2.643437 -2.157625 -3.091195
  H 7.000541 -1.172758 -1.499446
 17
 7.622519
  H 1.317316 0.095067 0.547972
  C 2.375915 0.162903 0.367291
  H 2.960767 0.731903 1.071338
  C 2.945767 -0.424476 -0.721517
  C 4.328271 -0.323720 -0.945949
  C 5.101669 -0.784265 -2.019612
  C 4.678282 -1.339360 -3.319849
  C 3.205400 -1.466937 -3.666349
  H 3.119274 -1.776494 -4.704996
  O 6.398816 -0.554238 -1.872366
  H 2.321736 -0.981016 -1.400575
  H 4.907506 0.181651 -0.178064
  H 5.150558 -2.324000 -3.441064
  H 5.177920 -0.716995 -4.074904
  H 2.685369 -0.519630 -3.556461
  H 2.715622 -2.226686 -3.063163
  H 7.019476 -1.297262 -1.960124
 17
 0.490084
  H 1.281821 0.224031 0.490819
  C 2.350181 0.206647 0.361465
  H 2.947695 0.686131 1.120251
  C 2.919991 -0.376657 -0.729719
  C 4.312576 -0.392118 -0.885479
  C 5.103815 -0.823366 -1.970903
  C 4.706756 -1.314280 -3.309692
  C 3.237928 -1.510832 -3.654393
  H 3.168009 -1.850724 -4.684025
  O 6.376428 -0.711435 -1.721008
  H 2.282505 -0.833741 -1.467177
  H 4.903933 -0.049599 -0.028543
  H 5.235064 -2.259424 -3.487603
  H 5.137013 -0.605258 -4.030399
  H 2.680411 -0.582616 -3.576976
  H 2.780186 -2.271871 -3.028035
  H 7.020715 -1.101766 -2.344490
 17
 7.985088
  H 1.229461 0.236022 0.264015
  C 2.293845 0.301588 0.118009
  H 2.790729 1.182175 0.490425
  C 2.962898 -0.637126 -0.586911
  C 4.351622 -0.550147 -0.832321
  C 5.120338 -0.904303 -1.946201
  C 4.684586 -1.198725 -3.322409
  C 3.191711 -1.386164 -3.553257
  H 3.012404 -1.560619 -4.611687
  O 6.404494 -0.772499 -1.687475
  H 2.429788 -1.498724 -0.965516
  H 5.048599 -0.275016 -0.040468
  H 5.209874 -2.093049 -3.677735
  H 5.053696 -0.372770 -3.947444
  H 2.630367 -0.505648 -3.255852
  H 2.814345 -2.246856 -3.008411
  H 7.043778 -1.314399 -2.188671
 17
 23.815959
  H 1.272410 0.236806 0.388494
  C 2.303446 0.338591 0.109527
  H 2.804941 1.256852 0.371025
  C 2.945374 -0.646429 -0.543651
  C 4.300655 -0.555066 -0.910806
  C 5.087533 -0.906811 -2.015020
  C 4.715585 -1.173344 -3.408554
  C 3.217585 -1.361991 -3.617693
  H 3.017402 -1.536154 -4.672915
  O 6.359803 -0.758594 -1.663827
  H 2.453627 -1.596974 -0.729493
  H 5.162903 -0.279509 -0.266459
  H 5.230852 -2.081618 -3.750109
  H 5.087921 -0.338495 -4.000255
  H 2.661096 -0.495134 -3.282386
  H 2.856842 -2.244503 -3.094403
  H 7.026427 -1.432190 -1.878540
 17
 58.555332
  H 1.341807 0.346316 0.658110
  C 2.323210 0.406045 0.223301
  H 2.819530 1.360880 0.258638
  C 2.889194 -0.672475 -0.376310
  C 4.123116 -0.642240 -1.000805
  C 4.916590 -0.924909 -2.012858
  C 4.727280 -1.177436 -3.459063
  C 3.261601 -1.396017 -3.816435
  H 3.162365 -1.557208 -4.885906
  O 6.237138 -0.706334 -1.507770
  H 2.390814 -1.635268 -0.319984
  H 5.517245 -0.390639 -0.495185
  H 5.308166 -2.062137 -3.735203
  H 5.129453 -0.332253 -4.024402
  H 2.664836 -0.529200 -3.545849
  H 2.863467 -2.266266 -3.302407
  H 6.909731 -1.407984 -1.654125
 17
 55.850035
  H 1.342837 0.354329 0.756074
  C 2.294192 0.427134 0.251168
  H 2.754778 1.395075 0.216013
  C 2.863987 -0.672452 -0.352662
  C 4.078778 -0.654472 -1.015867
  C 4.871573 -0.932565 -2.000857
  C 4.709062 -1.182877 -3.451167
  C 3.255018 -1.385680 -3.847557
  H 3.178521 -1.551416 -4.916139
  O 6.206229 -0.725091 -1.475211
  H 2.376070 -1.627829 -0.253287
  H 5.620689 -0.411146 -0.548895
  H 5.282292 -2.079328 -3.703706
  H 5.140375 -0.341858 -4.010107
  H 2.661300 -0.508945 -3.596104
  H 2.836435 -2.256412 -3.338592
  H 6.868104 -1.435638 -1.617552
 17
 43.784735
  H 1.302654 0.284757 0.747417
  C 2.234571 0.379552 0.221753
  H 2.609508 1.377663 0.055279
  C 2.850692 -0.716129 -0.303378
  C 3.993563 -0.694896 -1.023190
  C 4.841829 -0.924494 -1.973905
  C 4.711318 -1.191364 -3.430907
  C 3.260296 -1.307581 -3.852087
  H 3.199376 -1.488421 -4.923057
  O 6.232701 -0.716326 -1.497471
  H 2.441306 -1.700083 -0.088620
  H 5.926738 -0.371801 -0.624311
  H 5.215820 -2.138535 -3.652433
  H 5.220268 -0.398362 -3.991389
  H 2.713598 -0.400106 -3.629452
  H 2.781128 -2.141842 -3.340868
  H 6.873943 -1.445571 -1.623749
 17
 42.881963
  H 1.336069 0.390892 0.742301
  C 2.293418 0.426839 0.251860
  H 2.800324 1.372225 0.230135
  C 2.812570 -0.679784 -0.351208
  C 3.989065 -0.705592 -1.038721
  C 4.847315 -0.935615 -1.978296
  C 4.733016 -1.139642 -3.448787
  C 3.296386 -1.403473 -3.872740
  H 3.240312 -1.507647 -4.952912
  O 6.234204 -0.720169 -1.475088
  H 2.299976 -1.625050 -0.240226
  H 5.893966 -0.492091 -0.563052
  H 5.360073 -1.987923 -3.730792
  H 5.115437 -0.254789 -3.967484
  H 2.656530 -0.578207 -3.571517
  H 2.920399 -2.314330 -3.422243
  H 6.861241 -1.452096 -1.654790
 17
 38.102158
  H 1.335166 0.387905 0.741363
  C 2.257204 0.433042 0.194124
  H 2.715512 1.399085 0.074529
  C 2.820270 -0.699369 -0.330521
  C 3.968839 -0.726112 -1.050336
  C 4.854084 -0.934230 -1.964204
  C 4.738255 -1.149919 -3.435181
  C 3.294098 -1.378344 -3.863694
  H 3.242854 -1.507184 -4.940509
  O 6.258675 -0.738025 -1.512816
  H 2.363593 -1.658642 -0.116966
  H 6.068280 -0.452264 -0.588621
  H 5.338626 -2.018497 -3.711603
  H 5.146355 -0.277587 -3.953211
  H 2.672052 -0.530234 -3.590645
  H 2.888723 -2.269242 -3.390970
  H 6.851047 -1.510194 -1.660840
 17
 35.422105
  H 1.365944 0.382408 0.779304
  C 2.243567 0.418097 0.161762
  H 2.622367 1.387748 -0.109140
  C 2.838165 -0.733198 -0.279965
  C 3.939495 -0.778384 -1.063086
  C 4.851407 -0.950896 -1.955819
  C 4.748428 -1.160212 -3.432826
  C 3.304614 -1.354692 -3.879782
  H 3.263407 -1.480667 -4.957998
  O 6.261489 -0.730504 -1.537538
  H 2.446021 -1.687655 0.053086
  H 6.168473 -0.387495 -0.621226
  H 5.335007 -2.038454 -3.710433
  H 5.175895 -0.291794 -3.939438
  H 2.697592 -0.494052 -3.611745
  H 2.871200 -2.236913 -3.416072
  H 6.832113 -1.526334 -1.652345
 17
 34.539677
  H 1.304345 0.331018 0.692877
  C 2.204623 0.385597 0.110341
  H 2.565650 1.363382 -0.155751
  C 2.850450 -0.750749 -0.295134
  C 3.983148 -0.767437 -1.033750
  C 4.884095 -0.939814 -1.939276
  C 4.735572 -1.163916 -3.413431
  C 3.278280 -1.322541 -3.826728
  H 3.211219 -1.461595 -4.902030
  O 6.304707 -0.739547 -1.580477
  H 2.473965 -1.713332 0.032104
  H 6.327949 -0.316218 -0.692431
  H 5.288663 -2.062556 -3.694227
  H 5.178795 -0.313748 -3.936948
  H 2.700924 -0.441616 -3.558974
  H 2.830313 -2.185687 -3.341760
  H 6.842487 -1.564241 -1.637665
 17
 34.224609
  H 1.275168 0.292155 0.643536
  C 2.177260 0.353563 0.063294
  H 2.504070 1.331505 -0.245900
  C 2.866199 -0.774710 -0.288028
  C 4.008438 -0.781388 -1.011322
  C 4.902628 -0.940399 -1.925441
  C 4.724811 -1.177117 -3.397762
  C 3.258287 -1.288146 -3.793707
  H 3.175253 -1.444667 -4.865444
  O 6.333880 -0.744480 -1.619767
  H 2.518838 -1.735782 0.073942
  H 6.451460 -0.208767 -0.801458
  H 5.242219 -2.097846 -3.674671
  H 5.192137 -0.347768 -3.934373
  H 2.717218 -0.381102 -3.537451
  H 2.782201 -2.124286 -3.288216
  H 6.835119 -1.593763 -1.570493
