 29
 0.000000
  C 0.955052 0.142504 0.407125
  C 2.430945 0.138389 0.396274
  C 3.225333 0.605269 1.557181
  C 2.461436 1.097990 2.783055
  C 3.431484 1.537094 3.875323
  C 3.040024 -0.328190 -0.764639
  C 4.416721 -0.409896 -0.969181
  C 5.108318 -0.859183 -2.089786
  C 4.617660 -1.382076 -3.393955
  C 3.130235 -1.501986 -3.693749
  H 2.990436 -1.899344 -4.684920
  O 6.427562 -0.850449 -2.068556
  H 0.534358 0.514806 1.333178
  H 0.580423 -0.867385 0.235589
  H 0.579991 0.752382 -0.415697
  H 3.883368 1.413750 1.219682
  H 3.883611 -0.211646 1.873166
  H 1.825660 0.303952 3.178354
  H 1.825540 1.944643 2.518869
  H 4.066950 0.711238 4.187404
  H 2.885272 1.887589 4.747467
  H 4.066850 2.349236 3.528954
  H 2.370674 -0.642699 -1.546594
  H 5.042162 -0.079989 -0.148376
  H 5.081818 -2.367222 -3.517257
  H 5.082269 -0.755295 -4.163689
  H 2.651656 -0.525127 -3.646042
  H 2.651356 -2.175209 -2.984540
  H 6.819546 -0.519084 -1.240227
 29
 0.753885
  C 0.962525 0.301935 0.333756
  C 2.439449 0.236974 0.347044
  C 3.221574 0.602233 1.553447
  C 2.454091 1.028990 2.805770
  C 3.425748 1.384468 3.929724
  C 3.049414 -0.185292 -0.829182
  C 4.423133 -0.236753 -1.054216
  C 5.115563 -0.783816 -2.126180
  C 4.619684 -1.474937 -3.354291
  C 3.129221 -1.665480 -3.586654
  H 2.993559 -2.184547 -4.535050
  O 6.435132 -0.730812 -2.125836
  H 0.545144 0.653097 1.268601
  H 0.548321 -0.683457 0.123928
  H 0.622916 0.955899 -0.468450
  H 3.885992 1.431588 1.269862
  H 3.891672 -0.228478 1.812800
  H 1.808925 0.217661 3.148104
  H 1.832421 1.900683 2.592539
  H 4.048650 0.532353 4.190872
  H 2.880420 1.686382 4.820049
  H 4.073153 2.208408 3.639181
  H 2.327079 -0.510239 -1.558278
  H 5.045331 0.231165 -0.299828
  H 5.118913 -2.451517 -3.373001
  H 5.045430 -0.918482 -4.198718
  H 2.614497 -0.713839 -3.657436
  H 2.682928 -2.276788 -2.810470
  H 6.826152 -0.303481 -1.343981
 29
 3.996830
  C 0.982309 0.361165 0.308951
  C 2.456469 0.266068 0.327716
  C 3.222779 0.603246 1.555108
  C 2.441740 1.002323 2.804941
  C 3.402695 1.345233 3.938630
  C 3.071587 -0.155764 -0.847536
  C 4.433883 -0.214808 -1.079816
  C 5.128642 -0.774513 -2.147003
  C 4.622924 -1.494415 -3.352112
  C 3.129175 -1.701770 -3.542432
  H 2.975200 -2.249630 -4.464012
  O 6.444698 -0.710122 -2.163187
  H 0.570647 0.708905 1.249803
  H 0.544976 -0.617073 0.101643
  H 0.652984 1.039481 -0.479693
  H 3.882853 1.433965 1.275914
  H 3.872935 -0.243463 1.797751
  H 1.793243 0.184205 3.118842
  H 1.831271 1.884240 2.595047
  H 4.030930 0.494691 4.197116
  H 2.851374 1.637474 4.829783
  H 4.051227 2.174877 3.663041
  H 2.275810 -0.463437 -1.512222
  H 5.058719 0.268418 -0.338060
  H 5.111908 -2.473785 -3.335142
  H 5.038734 -0.970887 -4.219425
  H 2.607123 -0.752632 -3.623531
  H 2.708394 -2.285109 -2.727932
  H 6.837415 -0.263108 -1.392648
 29
 7.423181
  C 1.019671 0.427263 0.257508
  C 2.484666 0.326887 0.295145
  C 3.230718 0.637462 1.542073
  C 2.428096 0.973187 2.792230
  C 3.368038 1.277303 3.950333
  C 3.111134 -0.089016 -0.874165
  C 4.461962 -0.151855 -1.117411
  C 5.144317 -0.757903 -2.167376
  C 4.605636 -1.536531 -3.317440
  C 3.098274 -1.727547 -3.457035
  H 2.912916 -2.331968 -4.335042
  O 6.457065 -0.705863 -2.212128
  H 0.590555 0.756930 1.199714
  H 0.581249 -0.548861 0.057811
  H 0.699887 1.114490 -0.528037
  H 3.890484 1.487930 1.319749
  H 3.869222 -0.220463 1.763944
  H 1.783788 0.138283 3.062962
  H 1.815769 1.858803 2.604687
  H 3.991665 0.418348 4.197622
  H 2.795372 1.524790 4.843623
  H 4.008754 2.126519 3.734048
  H 2.284220 -0.421534 -1.491767
  H 5.098119 0.355104 -0.397409
  H 5.074984 -2.522087 -3.253821
  H 5.004781 -1.073038 -4.229337
  H 2.586210 -0.780578 -3.573468
  H 2.696873 -2.277171 -2.599101
  H 6.864041 -0.222468 -1.469607
 29
 14.349444
  C 1.038573 0.496278 0.230175
  C 2.501679 0.324250 0.264791
  C 3.215373 0.619318 1.556602
  C 2.404897 0.975472 2.791384
  C 3.345799 1.235863 3.948389
  C 3.118998 -0.066560 -0.926987
  C 4.469680 -0.125139 -1.150012
  C 5.154266 -0.754696 -2.174622
  C 4.605115 -1.572277 -3.279275
  C 3.099683 -1.768661 -3.393387
  H 2.916329 -2.387047 -4.261622
  O 6.469381 -0.695573 -2.240405
  H 0.618258 0.846956 1.180165
  H 0.552644 -0.451988 -0.010090
  H 0.757788 1.215993 -0.533179
  H 3.893589 1.445917 1.345156
  H 3.841792 -0.243168 1.811451
  H 1.733017 0.155920 3.065858
  H 1.820219 1.876244 2.622165
  H 3.945477 0.360889 4.177434
  H 2.785412 1.489014 4.845793
  H 4.028995 2.065325 3.730794
  H 2.207434 -0.362020 -1.458400
  H 5.093965 0.407659 -0.433923
  H 5.092322 -2.546120 -3.219748
  H 4.983454 -1.146001 -4.220377
  H 2.584301 -0.825779 -3.541188
  H 2.707768 -2.297028 -2.532176
  H 6.877255 -0.186398 -1.517494
 29
 15.168514
  C 1.065345 0.506687 0.214692
  C 2.542837 0.381875 0.289375
  C 3.211750 0.681640 1.575173
  C 2.380898 1.008608 2.815801
  C 3.283939 1.247896 4.010915
  C 3.170717 -0.068903 -0.878445
  C 4.523236 -0.155372 -1.164957
  C 5.150554 -0.808447 -2.201389
  C 4.581179 -1.631224 -3.304877
  C 3.065264 -1.770242 -3.423373
  H 2.841033 -2.377400 -4.298128
  O 6.469990 -0.768337 -2.305743
  H 0.640028 0.894942 1.139407
  H 0.605276 -0.462982 0.031262
  H 0.794671 1.197876 -0.587147
  H 3.894768 1.529687 1.422667
  H 3.884221 -0.152735 1.812008
  H 1.737257 0.155600 3.022863
  H 1.759364 1.878360 2.636951
  H 3.900536 0.375106 4.218677
  H 2.693964 1.454936 4.901489
  H 3.944064 2.096959 3.842452
  H 2.268985 -0.393089 -1.387558
  H 5.158747 0.396158 -0.467600
  H 5.049212 -2.613738 -3.230960
  H 4.974845 -1.178693 -4.227449
  H 2.605020 -0.801723 -3.542371
  H 2.659536 -2.252480 -2.545495
  H 6.893508 -0.246319 -1.592891
 29
 15.472650
  C 1.120945 0.617739 0.204496
  C 2.569985 0.449246 0.276087
  C 3.223781 0.681938 1.583653
  C 2.356619 0.926646 2.822182
  C 3.236936 1.103044 4.040773
  C 3.175236 0.035334 -0.903483
  C 4.497305 -0.022179 -1.224852
  C 5.141462 -0.713772 -2.256565
  C 4.579086 -1.621730 -3.284465
  C 3.076939 -1.907986 -3.304631
  H 2.862702 -2.601822 -4.110332
  O 6.438777 -0.578081 -2.399891
  H 0.694760 1.014996 1.111731
  H 0.625737 -0.343408 -0.001756
  H 0.868374 1.330372 -0.596513
  H 3.879820 1.541312 1.474501
  H 3.878246 -0.181073 1.787687
  H 1.710299 0.070803 2.983152
  H 1.749543 1.821388 2.711035
  H 3.867141 0.224873 4.234227
  H 2.644210 1.275492 4.949866
  H 3.905543 1.966706 3.944325
  H 2.256464 -0.350890 -1.441540
  H 5.142431 0.589600 -0.612835
  H 5.114100 -2.573813 -3.178852
  H 4.884408 -1.216077 -4.262984
  H 2.498700 -1.009373 -3.494810
  H 2.743000 -2.383166 -2.379277
  H 6.868411 0.019528 -1.773140
 29
 17.849564
  C 1.177460 0.721714 0.163073
  C 2.638999 0.481658 0.272722
  C 3.238248 0.694982 1.611655
  C 2.314749 0.960095 2.805941
  C 3.157369 1.090504 4.079793
  C 3.215835 0.036628 -0.908646
  C 4.549124 -0.031308 -1.266008
  C 5.152031 -0.766380 -2.284423
  C 4.543436 -1.692092 -3.268707
  C 3.042376 -1.948339 -3.223265
  H 2.774290 -2.644656 -4.000943
  O 6.454397 -0.652584 -2.463792
  H 0.754772 1.149370 1.077608
  H 0.640098 -0.202971 -0.021376
  H 0.957568 1.395344 -0.659556
  H 3.963895 1.518854 1.530248
  H 3.837112 -0.197170 1.854553
  H 1.629578 0.122561 2.889449
  H 1.771744 1.886569 2.655717
  H 3.723293 0.185871 4.258219
  H 2.514885 1.281161 4.932824
  H 3.846070 1.924719 3.990494
  H 2.275934 -0.346450 -1.371446
  H 5.199104 0.622479 -0.691315
  H 5.080514 -2.643536 -3.148383
  H 4.839686 -1.318246 -4.253432
  H 2.493809 -1.029540 -3.383470
  H 2.750921 -2.370448 -2.266351
  H 6.899453 -0.040175 -1.854633
 29
 18.512787
  C 1.189469 0.912884 0.105147
  C 2.612604 0.554735 0.226778
  C 3.230715 0.670974 1.568622
  C 2.320134 0.937428 2.773342
  C 3.139212 0.886356 4.065266
  C 3.181240 0.155666 -0.958535
  C 4.502959 0.122790 -1.349142
  C 5.114524 -0.663250 -2.317378
  C 4.547093 -1.753770 -3.149599
  C 3.073060 -2.086686 -3.033594
  H 2.839073 -2.900600 -3.706314
  O 6.406139 -0.527988 -2.530965
  H 0.833400 1.377505 1.020083
  H 0.562685 0.025283 -0.037482
  H 1.021672 1.613107 -0.717275
  H 4.011449 1.439862 1.535442
  H 3.748736 -0.269197 1.768631
  H 1.538747 0.168252 2.810745
  H 1.850919 1.923084 2.702193
  H 3.617926 -0.082457 4.195128
  H 2.492450 1.077570 4.929003
  H 3.904582 1.661354 4.064098
  H 2.275048 -0.303553 -1.406777
  H 5.145708 0.841872 -0.836238
  H 5.167947 -2.638835 -2.937089
  H 4.799652 -1.493074 -4.182190
  H 2.465765 -1.243654 -3.315085
  H 2.824101 -2.402655 -2.029048
  H 6.823991 0.177599 -2.011086
 29
 22.775596
  C 1.243729 0.909958 0.099279
  C 2.660732 0.454075 0.293792
  C 3.182934 0.579798 1.667583
  C 2.271394 0.983468 2.822234
  C 3.055344 0.948199 4.134391
  C 3.235879 0.105157 -0.912273
  C 4.533769 0.113434 -1.367854
  C 5.116313 -0.646590 -2.377841
  C 4.536864 -1.741059 -3.194786
  C 3.085622 -2.138157 -3.009476
  H 2.853503 -2.941828 -3.699345
  O 6.382889 -0.435489 -2.687935
  H 0.851482 1.433920 0.961224
  H 0.586504 0.054799 -0.075315
  H 1.184158 1.566951 -0.766016
  H 4.028477 1.283228 1.638710
  H 3.652096 -0.373036 1.926225
  H 1.430553 0.288755 2.925001
  H 1.877216 1.994499 2.684149
  H 3.442415 -0.052552 4.321801
  H 2.409899 1.226878 4.957136
  H 3.886349 1.644193 4.101380
  H 2.334858 -0.417552 -1.315827
  H 5.171037 0.854242 -0.895590
  H 5.174695 -2.624290 -3.036837
  H 4.707482 -1.477369 -4.242306
  H 2.413144 -1.316499 -3.240472
  H 2.890649 -2.492603 -1.997963
  H 6.820251 0.287918 -2.209963
 29
 26.029522
  C 1.193662 1.078203 0.055752
  C 2.592955 0.571728 0.239068
  C 3.178443 0.600669 1.604426
  C 2.261571 0.863705 2.796854
  C 3.066933 0.803645 4.096350
  C 3.233781 0.221523 -0.921305
  C 4.526104 0.211456 -1.418859
  C 5.101067 -0.621617 -2.369768
  C 4.535012 -1.801061 -3.076194
  C 3.096274 -2.214566 -2.832793
  H 2.883273 -3.101477 -3.437963
  O 6.367869 -0.423945 -2.722664
  H 0.815572 1.592110 0.932447
  H 0.491936 0.261606 -0.150203
  H 1.158085 1.765843 -0.782549
  H 3.989249 1.340918 1.601931
  H 3.666022 -0.357555 1.793293
  H 1.471951 0.108968 2.847961
  H 1.801661 1.852582 2.726643
  H 3.521600 -0.169829 4.223104
  H 2.417374 0.985726 4.942635
  H 3.847190 1.557324 4.097654
  H 2.405892 -0.414352 -1.221174
  H 5.153513 1.005278 -1.033007
  H 5.200091 -2.642429 -2.822392
  H 4.702085 -1.623296 -4.146952
  H 2.408049 -1.437852 -3.139168
  H 2.934372 -2.481083 -1.792920
  H 6.798384 0.334969 -2.293645
 29
 35.593042
  C 1.281548 1.236741 0.024152
  C 2.598839 0.572122 0.218803
  C 3.129906 0.495607 1.597834
  C 2.192884 0.803517 2.778794
  C 2.963594 0.634476 4.093298
  C 3.266994 0.305170 -0.955091
  C 4.499019 0.314726 -1.535283
  C 5.069296 -0.558769 -2.452930
  C 4.564257 -1.855911 -2.975128
  C 3.186205 -2.326452 -2.557931
  H 2.977278 -3.275591 -3.048136
  O 6.273711 -0.281476 -2.955902
  H 0.992411 1.779423 0.919626
  H 0.493062 0.520409 -0.193525
  H 1.335930 1.929457 -0.802946
  H 3.996424 1.166220 1.634745
  H 3.553353 -0.499502 1.745026
  H 1.351675 0.113775 2.800090
  H 1.829956 1.829823 2.756878
  H 3.304091 -0.382409 4.213111
  H 2.329770 0.884582 4.935434
  H 3.827453 1.286696 4.117315
  H 2.431760 -0.405018 -1.129718
  H 5.108713 1.156331 -1.242817
  H 5.306336 -2.606364 -2.707569
  H 4.601116 -1.776113 -4.063051
  H 2.417438 -1.615277 -2.863327
  H 3.134177 -2.486592 -1.490382
  H 6.616708 0.593392 -2.707608
 29
 47.078294
  C 1.275470 1.215665 -0.002263
  C 2.616146 0.558438 0.197152
  C 3.133255 0.442528 1.597769
  C 2.185691 0.751175 2.753690
  C 2.912128 0.541002 4.083135
  C 3.382497 0.351783 -0.895964
  C 4.553778 0.360860 -1.579851
  C 5.076417 -0.535333 -2.497394
  C 4.533673 -1.854307 -2.926251
  C 3.191292 -2.296831 -2.368050
  H 2.953509 -3.278025 -2.768533
  O 6.248578 -0.282510 -3.085713
  H 0.967105 1.738945 0.893509
  H 0.501616 0.487938 -0.229073
  H 1.322715 1.924513 -0.822434
  H 3.975906 1.140325 1.647669
  H 3.562338 -0.549260 1.747260
  H 1.315628 0.089500 2.723405
  H 1.845550 1.787718 2.714857
  H 3.260581 -0.488428 4.181813
  H 2.242802 0.753733 4.918391
  H 3.775239 1.203575 4.163755
  H 2.456995 -0.347530 -0.939311
  H 5.127826 1.270363 -1.400947
  H 5.293343 -2.600545 -2.679584
  H 4.490591 -1.836401 -4.018609
  H 2.399332 -1.618436 -2.675059
  H 3.229747 -2.384427 -1.285089
  H 6.623340 0.583878 -2.850056
 29
 55.812586
  C 1.285786 1.178400 -0.004647
  C 2.646574 0.518669 0.205122
  C 3.145674 0.388981 1.629147
  C 2.170320 0.699203 2.760464
  C 2.860650 0.491034 4.105164
  C 3.483866 0.383367 -0.851611
  C 4.582451 0.382735 -1.620642
  C 5.068581 -0.520361 -2.544077
  C 4.509253 -1.856312 -2.910032
  C 3.219330 -2.284929 -2.233265
  H 2.948230 -3.272933 -2.591562
  O 6.191697 -0.254729 -3.220181
  H 0.952844 1.671800 0.898026
  H 0.520442 0.454718 -0.271877
  H 1.345888 1.919505 -0.796630
  H 4.015448 1.044519 1.713459
  H 3.520872 -0.628558 1.779498
  H 1.302563 0.040631 2.707474
  H 1.831968 1.733599 2.712342
  H 3.195841 -0.536989 4.218236
  H 2.175236 0.713309 4.918929
  H 3.723705 1.145132 4.203050
  H 2.443983 -0.352274 -0.730992
  H 5.140100 1.307908 -1.494741
  H 5.292366 -2.596061 -2.711294
  H 4.375298 -1.857904 -3.997060
  H 2.406670 -1.610254 -2.486981
  H 3.349240 -2.349262 -1.157086
  H 6.560123 0.622882 -3.030162
