 14
 0.000000
  C 0.975790 0.137332 0.393142
  C 2.453972 0.138831 0.396445
  H 3.017345 0.478023 1.240518
  C 3.074760 -0.323868 -0.755623
  C 4.452396 -0.411652 -0.974602
  C 5.123831 -0.863395 -2.100714
  H 4.763810 -1.238544 -3.035887
  O 6.448567 -0.861790 -2.097024
  H 0.536390 0.506813 1.312870
  H 0.606624 -0.875729 0.225913
  H 0.606339 0.752985 -0.428456
  H 2.419633 -0.642347 -1.548686
  H 5.073532 -0.080521 -0.149771
  H 6.820588 -0.526463 -1.260938
 14
 0.000000
  C 1.012454 0.134442 0.385941
  C 2.490592 0.139066 0.397017
  H 3.048801 0.479441 1.244041
  C 3.133427 -0.333353 -0.779261
  C 4.443749 -0.427086 -1.013078
  C 5.079743 -0.861685 -2.096456
  H 4.737302 -1.239112 -3.037300
  O 6.343289 -0.840672 -2.044387
  H 0.567443 0.502987 1.303345
  H 0.646315 -0.879396 0.216776
  H 0.646028 0.749319 -0.437591
  H 2.483154 -0.653212 -1.575757
  H 5.076767 -0.099085 -0.196064
  H 6.664515 -0.481979 -1.150038
 14
 0.000000
  C 1.047610 0.131793 0.379340
  C 2.525633 0.140171 0.399758
  H 3.077611 0.481954 1.250291
  C 3.193765 -0.342659 -0.802454
  C 4.438984 -0.441707 -1.049526
  C 5.040444 -0.860174 -2.092691
  H 4.714586 -1.239635 -3.038597
  O 6.241876 -0.822132 -1.998177
  H 0.595875 0.499197 1.293911
  H 0.685123 -0.882970 0.207870
  H 0.684835 0.745746 -0.446495
  H 2.549353 -0.664162 -1.603041
  H 5.084339 -0.117053 -0.240867
  H 6.505093 -0.439322 -1.043692
 14
 0.000000
  C 1.080644 0.129500 0.373625
  C 2.558440 0.142361 0.405201
  H 3.102942 0.485805 1.259876
  C 3.255824 -0.351701 -0.824991
  C 4.438579 -0.455367 -1.083576
  C 5.006545 -0.858963 -2.089670
  H 4.695876 -1.240189 -3.039968
  O 6.145138 -0.806402 -1.958971
  H 0.620904 0.495518 1.284757
  H 0.722541 -0.886356 0.199431
  H 0.722253 0.742361 -0.454931
  H 2.618453 -0.675148 -1.630418
  H 5.096690 -0.134278 -0.283820
  H 6.342204 -0.399060 -0.943318
 14
 0.000000
  C 1.110235 0.127811 0.369418
  C 2.587635 0.145991 0.414233
  H 3.123219 0.491376 1.273749
  C 3.319210 -0.360371 -0.846603
  C 4.443212 -0.467882 -1.114773
  C 4.979324 -0.858362 -2.088168
  H 4.681934 -1.241057 -3.042118
  O 6.055070 -0.793988 -1.928029
  H 0.641035 0.492155 1.276392
  H 0.757366 -0.889323 0.192034
  H 0.757078 0.739395 -0.462325
  H 2.690248 -0.686097 -1.657705
  H 5.114313 -0.150539 -0.324367
  H 6.177534 -0.362014 -0.850958
 14
 0.000000
  C 1.134981 0.127107 0.367661
  C 2.611718 0.151735 0.428531
  H 3.136416 0.499432 1.293813
  C 3.385027 -0.368824 -0.867673
  C 4.453833 -0.479343 -1.143339
  C 4.960025 -0.858916 -2.089541
  H 4.673733 -1.242787 -3.046410
  O 5.972358 -0.785388 -1.906592
  H 0.654363 0.489374 1.269477
  H 0.788504 -0.891554 0.186471
  H 0.788217 0.737165 -0.467883
  H 2.766344 -0.697273 -1.685558
  H 5.138103 -0.165917 -0.362717
  H 6.009840 -0.328331 -0.766979
 14
 0.000000
  C 1.152666 0.127835 0.369474
  C 2.628335 0.160225 0.449671
  H 3.139828 0.510643 1.321741
  C 3.453201 -0.377032 -0.888133
  C 4.471016 -0.489479 -1.168602
  C 4.950437 -0.861213 -2.095261
  H 4.672532 -1.245943 -3.054254
  O 5.899897 -0.781366 -1.896563
  H 0.658384 0.487536 1.264915
  H 0.813950 -0.892628 0.183792
  H 0.813666 0.736094 -0.470558
  H 2.847011 -0.708701 -1.714040
  H 5.168135 -0.179999 -0.397834
  H 5.842046 -0.299190 -0.694318
 14
 0.000000
  C 1.160753 0.130586 0.376327
  C 2.634767 0.172220 0.479544
  H 3.130384 0.525792 1.359480
  C 3.524002 -0.385040 -0.908091
  C 4.495157 -0.498115 -1.190122
  C 4.952176 -0.866050 -2.107306
  H 4.679492 -1.251304 -3.067588
  O 5.840585 -0.782726 -1.899943
  H 0.650308 0.487135 1.263933
  H 0.831377 -0.891971 0.185422
  H 0.831097 0.736753 -0.468923
  H 2.932863 -0.720461 -1.743348
  H 5.204300 -0.192439 -0.428861
  H 5.677389 -0.275555 -0.635380
 14
 0.000000
  C 1.156281 0.136083 0.390021
  C 2.627829 0.188523 0.520150
  H 3.104683 0.545660 1.408980
  C 3.597672 -0.392928 -0.927750
  C 4.526485 -0.505113 -1.207559
  C 4.966847 -0.874431 -2.128181
  H 4.695766 -1.259848 -3.088852
  O 5.798056 -0.790353 -1.918941
  H 0.627098 0.488815 1.268138
  H 0.837956 -0.888850 0.193188
  H 0.837682 0.739875 -0.461152
  H 3.024365 -0.732621 -1.773653
  H 5.246228 -0.202887 -0.454916
  H 5.521076 -0.258273 -0.592271
 14
 0.000000
  C 1.136700 0.144788 0.411707
  C 2.604767 0.209438 0.572246
  H 3.060152 0.570444 1.470728
  C 3.673603 -0.400652 -0.946993
  C 4.564322 -0.510273 -1.220411
  C 4.995067 -0.887013 -2.159528
  H 4.721835 -1.272227 -3.119672
  O 5.775934 -0.804515 -1.954224
  H 0.586550 0.493034 1.278667
  H 0.831038 -0.882737 0.208408
  H 0.830771 0.745990 -0.445927
  H 3.120754 -0.745022 -1.804553
  H 5.292513 -0.210861 -0.474802
  H 5.380875 -0.247692 -0.565866
 14
 0.000000
  C 1.100318 0.157116 0.442417
  C 2.563715 0.235153 0.636300
  H 2.995235 0.600207 1.544880
  C 3.752059 -0.408203 -0.965803
  C 4.607758 -0.513639 -1.228789
  C 5.036109 -0.904244 -2.202459
  H 4.756969 -1.288879 -3.161139
  O 5.775363 -0.825130 -2.005587
  H 0.527430 0.500232 1.296615
  H 0.808752 -0.873137 0.232316
  H 0.808494 0.755592 -0.422016
  H 3.222021 -0.757519 -1.835688
  H 5.342040 -0.216292 -0.488345
  H 5.261266 -0.243175 -0.554573
 14
 0.000000
  C 1.075873 0.163435 0.458159
  C 2.536711 0.247894 0.668041
  H 2.956658 0.614818 1.581284
  C 3.782574 -0.409898 -0.970019
  C 4.625222 -0.512786 -1.226654
  C 5.056257 -0.910818 -2.218834
  H 4.774972 -1.295239 -3.176975
  O 5.781513 -0.833131 -2.025521
  H 0.492169 0.504010 1.306033
  H 0.791151 -0.868085 0.244899
  H 0.790897 0.760645 -0.409431
  H 3.263623 -0.761518 -1.845647
  H 5.360184 -0.215669 -0.486793
  H 5.217770 -0.240720 -0.548439
 14
 0.000000
  C 0.964290 0.196385 0.540242
  C 2.412170 0.307537 0.816616
  H 2.783133 0.681698 1.747916
  C 3.945212 -0.422415 -1.001188
  C 4.720535 -0.514190 -1.230117
  C 5.159705 -0.957371 -2.334826
  H 4.853760 -1.339181 -3.286424
  O 5.830725 -0.890383 -2.168183
  H 0.336321 0.525819 1.360393
  H 0.708591 -0.840085 0.314633
  H 0.708356 0.788647 -0.339690
  H 3.473368 -0.783112 -1.899443
  H 5.463691 -0.219908 -0.497350
  H 5.044552 -0.251572 -0.575425
