 29
 0.000000
  C 0.979061 0.135925 0.389390
  C 2.455378 0.140212 0.399643
  C 3.231848 0.610635 1.570434
  C 2.449820 1.099036 2.786397
  C 3.400801 1.543814 3.893464
  C 3.075689 -0.324048 -0.756203
  C 4.451541 -0.410274 -0.971389
  C 5.123614 -0.863684 -2.101738
  C 4.616832 -1.384803 -3.400518
  C 3.126567 -1.499684 -3.687618
  H 2.976846 -1.898835 -4.682425
  O 6.445692 -0.863399 -2.101504
  H 0.539434 0.505003 1.308385
  H 0.612658 -0.876572 0.215736
  H 0.612335 0.746903 -0.436314
  H 3.890111 1.422312 1.240181
  H 3.890303 -0.203782 1.893430
  H 1.812920 0.301259 3.172630
  H 1.812818 1.942251 2.513458
  H 4.036588 0.721991 4.215490
  H 2.837953 1.890475 4.756636
  H 4.036449 2.360115 3.557435
  H 2.416339 -0.641159 -1.545536
  H 5.080044 -0.081262 -0.151961
  H 5.074250 -2.372612 -3.527776
  H 5.074666 -0.759260 -4.175311
  H 2.650269 -0.522985 -3.639587
  H 2.649865 -2.172078 -2.977855
  H 6.825579 -0.528974 -1.267319
 29
 -0.339622
  C 0.958821 0.269767 0.358829
  C 2.432781 0.218994 0.360610
  C 3.224350 0.622126 1.546532
  C 2.457248 1.062647 2.790331
  C 3.424477 1.396548 3.922334
  C 3.046632 -0.246691 -0.798800
  C 4.424013 -0.336654 -0.994863
  C 5.115640 -0.798314 -2.110829
  C 4.626041 -1.404105 -3.380334
  C 3.141059 -1.616029 -3.628292
  H 3.023294 -2.112482 -4.588934
  O 6.433759 -0.734236 -2.114001
  H 0.548716 0.789866 1.213865
  H 0.563495 -0.749031 0.356894
  H 0.594402 0.730997 -0.558364
  H 3.894924 1.437569 1.251726
  H 3.875977 -0.212347 1.827200
  H 1.789496 0.267212 3.122577
  H 1.858187 1.947777 2.573338
  H 4.024791 0.529658 4.190645
  H 2.877111 1.711911 4.807541
  H 4.094483 2.204810 3.636748
  H 2.388712 -0.541498 -1.596963
  H 5.052806 0.012424 -0.184395
  H 5.143711 -2.366264 -3.464584
  H 5.044262 -0.793253 -4.187985
  H 2.606503 -0.672130 -3.683146
  H 2.697954 -2.256354 -2.871226
  H 6.825615 -0.347289 -1.308952
 29
 -0.682808
  C 0.968600 0.331502 0.347470
  C 2.440842 0.277046 0.330947
  C 3.230622 0.651206 1.527923
  C 2.454548 1.018463 2.789725
  C 3.412506 1.287243 3.947057
  C 3.052285 -0.181892 -0.831761
  C 4.429799 -0.272486 -1.027149
  C 5.120396 -0.749897 -2.136620
  C 4.629154 -1.403442 -3.381421
  C 3.149520 -1.686233 -3.585898
  H 3.034267 -2.243791 -4.510981
  O 6.436892 -0.665119 -2.152307
  H 0.583104 1.015342 1.096330
  H 0.580558 -0.662628 0.586235
  H 0.572570 0.589968 -0.632145
  H 3.877002 1.497392 1.262831
  H 3.907622 -0.175272 1.773262
  H 1.783757 0.204901 3.067798
  H 1.854695 1.915233 2.621415
  H 4.009995 0.405895 4.172271
  H 2.858328 1.553621 4.843008
  H 4.085518 2.108796 3.712846
  H 2.394544 -0.465451 -1.634575
  H 5.058259 0.095043 -0.225572
  H 5.186606 -2.343647 -3.456084
  H 5.000743 -0.794964 -4.212935
  H 2.576536 -0.768699 -3.688530
  H 2.745069 -2.294477 -2.781855
  H 6.829888 -0.241221 -1.366490
 29
 -1.036655
  C 0.988056 0.446732 0.319693
  C 2.456039 0.333448 0.302606
  C 3.240808 0.663590 1.518525
  C 2.450314 0.953957 2.792655
  C 3.392458 1.142054 3.977753
  C 3.064340 -0.126101 -0.860751
  C 4.440876 -0.234698 -1.050187
  C 5.128563 -0.713522 -2.159164
  C 4.634482 -1.394719 -3.388075
  C 3.163106 -1.738379 -3.551231
  H 3.051208 -2.345980 -4.448068
  O 6.444481 -0.609734 -2.187692
  H 0.650902 1.273472 0.941082
  H 0.567461 -0.460978 0.758732
  H 0.578203 0.540741 -0.683303
  H 3.863968 1.538217 1.294746
  H 3.939084 -0.155686 1.727983
  H 1.771369 0.128744 3.007135
  H 1.855600 1.860265 2.676495
  H 3.980811 0.245407 4.154781
  H 2.826957 1.354673 4.880682
  H 4.073206 1.971664 3.805916
  H 2.408604 -0.388550 -1.670134
  H 5.071018 0.128000 -0.247699
  H 5.226150 -2.311423 -3.467247
  H 4.961135 -0.781913 -4.233188
  H 2.555596 -0.847333 -3.688182
  H 2.793183 -2.319375 -2.708719
  H 6.837481 -0.168987 -1.411461
 29
 -0.982113
  C 1.021501 0.569153 0.282765
  C 2.478221 0.355636 0.294485
  C 3.252916 0.691817 1.512752
  C 2.449962 0.868793 2.801037
  C 3.381897 1.057404 3.993721
  C 3.081589 -0.152540 -0.850002
  C 4.457116 -0.280106 -1.035428
  C 5.136935 -0.713060 -2.168945
  C 4.636221 -1.382225 -3.401000
  C 3.173379 -1.774141 -3.532692
  H 3.062686 -2.387218 -4.423350
  O 6.445671 -0.556185 -2.225836
  H 0.750200 1.485095 0.801673
  H 0.534013 -0.243417 0.828978
  H 0.618404 0.578110 -0.726014
  H 3.791864 1.628366 1.317749
  H 4.017834 -0.069058 1.686410
  H 1.826747 -0.011271 2.972309
  H 1.794572 1.737427 2.732808
  H 4.031065 0.194025 4.122696
  H 2.805802 1.182746 4.907759
  H 4.004388 1.940395 3.866031
  H 2.424801 -0.411376 -1.661943
  H 5.091834 0.069553 -0.229964
  H 5.256050 -2.278671 -3.511137
  H 4.922684 -0.742674 -4.243785
  H 2.534579 -0.905462 -3.660112
  H 2.840349 -2.362374 -2.682133
  H 6.842634 -0.135367 -1.440666
 29
 -0.021931
  C 1.067840 0.668156 0.249024
  C 2.503349 0.341627 0.303527
  C 3.271147 0.708006 1.517179
  C 2.462089 0.792590 2.815540
  C 3.384231 1.013626 4.009142
  C 3.091836 -0.245083 -0.808696
  C 4.465145 -0.423973 -0.981554
  C 5.141279 -0.752425 -2.153634
  C 4.639874 -1.336539 -3.427977
  C 3.176696 -1.718750 -3.584990
  H 3.066419 -2.279121 -4.509567
  O 6.439015 -0.534779 -2.222168
  H 0.860405 1.618049 0.730830
  H 0.504850 -0.084830 0.805357
  H 0.688962 0.676386 -0.770061
  H 3.722017 1.693647 1.337249
  H 4.096145 0.011456 1.672867
  H 1.906784 -0.136255 2.960595
  H 1.742867 1.611907 2.775253
  H 4.101947 0.199974 4.105222
  H 2.806454 1.060783 4.928500
  H 3.934129 1.949165 3.909260
  H 2.433540 -0.493501 -1.621930
  H 5.104368 -0.146873 -0.150803
  H 5.256325 -2.227697 -3.589855
  H 4.933159 -0.648233 -4.230026
  H 2.540060 -0.844199 -3.662757
  H 2.841441 -2.353756 -2.772443
  H 6.843620 -0.201864 -1.399018
 29
 1.349508
  C 1.111146 0.755031 0.230169
  C 2.527894 0.350621 0.303258
  C 3.297480 0.688932 1.523963
  C 2.482149 0.769763 2.816334
  C 3.404623 0.897813 4.025069
  C 3.094690 -0.270205 -0.800775
  C 4.461780 -0.495887 -0.965101
  C 5.141523 -0.737604 -2.157698
  C 4.655083 -1.315408 -3.439632
  C 3.189268 -1.679581 -3.615300
  H 3.082117 -2.235674 -4.543841
  O 6.418672 -0.425401 -2.235725
  H 0.928671 1.672028 0.781528
  H 0.492554 -0.015486 0.695763
  H 0.772601 0.861560 -0.795890
  H 3.763616 1.668780 1.358746
  H 4.110361 -0.025380 1.677962
  H 1.875561 -0.132467 2.922921
  H 1.809770 1.627182 2.802561
  H 4.067285 0.040738 4.103541
  H 2.820812 0.955416 4.941223
  H 4.012320 1.797629 3.957020
  H 2.435443 -0.477288 -1.625465
  H 5.098899 -0.270854 -0.118007
  H 5.258452 -2.220145 -3.578332
  H 4.975679 -0.643386 -4.242258
  H 2.565042 -0.794296 -3.696741
  H 2.835861 -2.312871 -2.807694
  H 6.823631 -0.137737 -1.395410
 29
 1.849600
  C 1.128974 0.704998 0.212209
  C 2.547325 0.315758 0.293866
  C 3.319883 0.671153 1.509803
  C 2.502718 0.793912 2.800585
  C 3.423463 0.927619 4.008359
  C 3.121941 -0.314802 -0.802603
  C 4.492281 -0.536936 -0.960522
  C 5.161301 -0.733538 -2.168620
  C 4.663733 -1.265981 -3.467373
  C 3.200975 -1.652761 -3.639822
  H 3.092701 -2.174314 -4.589102
  O 6.435406 -0.406650 -2.254794
  H 0.935301 1.629164 0.750645
  H 0.515845 -0.066632 0.684031
  H 0.793274 0.795601 -0.817110
  H 3.803570 1.637317 1.323646
  H 4.120062 -0.051240 1.677829
  H 1.878847 -0.090876 2.924164
  H 1.848937 1.664158 2.765847
  H 4.070050 0.058727 4.105788
  H 2.837969 1.014486 4.920673
  H 4.047208 1.813613 3.925523
  H 2.467589 -0.526890 -1.628104
  H 5.129312 -0.327853 -0.110733
  H 5.282221 -2.154126 -3.650999
  H 4.960636 -0.556258 -4.245509
  H 2.558011 -0.779453 -3.679236
  H 2.870270 -2.325110 -2.852243
  H 6.852536 -0.135729 -1.415560
 29
 2.161706
  C 1.117637 0.694526 0.235366
  C 2.539557 0.309665 0.308295
  C 3.316564 0.645080 1.525478
  C 2.502311 0.827244 2.809436
  C 3.423449 0.890727 4.023392
  C 3.107184 -0.307201 -0.796788
  C 4.475102 -0.528076 -0.959042
  C 5.141660 -0.695939 -2.171758
  C 4.660805 -1.261546 -3.460749
  C 3.211170 -1.689597 -3.624550
  H 3.115398 -2.222827 -4.567251
  O 6.397410 -0.311204 -2.262222
  H 0.912225 1.590110 0.813661
  H 0.506725 -0.104175 0.664712
  H 0.788652 0.828430 -0.791720
  H 3.852585 1.582195 1.330593
  H 4.078201 -0.115664 1.709179
  H 1.810621 -0.007834 2.928184
  H 1.916843 1.746327 2.772654
  H 3.994707 -0.029011 4.129015
  H 2.842418 1.030088 4.931724
  H 4.120912 1.721115 3.939249
  H 2.449710 -0.508968 -1.624436
  H 5.113194 -0.306845 -0.112255
  H 5.301801 -2.137156 -3.624769
  H 4.939708 -0.559803 -4.252824
  H 2.543624 -0.834244 -3.671783
  H 2.900958 -2.361641 -2.829680
  H 6.807971 -0.022220 -1.425091
 29
 3.057757
  C 1.125356 0.690550 0.227385
  C 2.542998 0.290928 0.313347
  C 3.321762 0.635543 1.526946
  C 2.508873 0.861442 2.804893
  C 3.425022 0.891269 4.024044
  C 3.110013 -0.342777 -0.782286
  C 4.475652 -0.583104 -0.938223
  C 5.131749 -0.694533 -2.164035
  C 4.651635 -1.245479 -3.459786
  C 3.207015 -1.687996 -3.628641
  H 3.115159 -2.200017 -4.583391
  O 6.368703 -0.257148 -2.265282
  H 0.914834 1.569757 0.827673
  H 0.500447 -0.117443 0.617474
  H 0.817434 0.856838 -0.801662
  H 3.880308 1.555612 1.315443
  H 4.066434 -0.138088 1.727522
  H 1.778650 0.059944 2.924551
  H 1.966528 1.806505 2.759675
  H 3.951300 -0.053738 4.140488
  H 2.846501 1.065573 4.927895
  H 4.162224 1.686294 3.936577
  H 2.454547 -0.535852 -1.613698
  H 5.115057 -0.387275 -0.086801
  H 5.299936 -2.115051 -3.630334
  H 4.924865 -0.534163 -4.244775
  H 2.527966 -0.840836 -3.654713
  H 2.907857 -2.382043 -2.848631
  H 6.790276 0.006842 -1.425631
