 23
 0.000000
  C 0.970939 0.177295 0.494191
  C 2.429282 0.124197 0.360792
  H 3.053691 0.453002 1.177711
  C 3.002967 -0.343088 -0.801937
  C 4.385111 -0.418868 -0.991705
  C 5.098642 -0.865288 -2.104876
  C 4.627195 -1.389719 -3.412863
  C 3.143332 -1.517670 -3.733237
  C 2.960064 -2.081700 -5.140102
  O 6.413414 -0.847956 -2.061718
  H 0.646402 0.563829 1.455513
  H 0.546334 -0.819036 0.355534
  H 0.545609 0.799843 -0.295584
  H 2.338767 -0.659440 -1.588371
  H 4.986245 -0.081895 -0.153118
  H 5.096941 -2.373275 -3.531545
  H 5.097555 -0.761069 -4.178175
  H 2.659987 -0.541169 -3.690666
  H 2.659408 -2.193989 -3.027970
  H 3.411867 -1.430261 -5.884410
  H 1.902212 -2.174380 -5.372228
  H 3.411332 -3.067153 -5.228088
  H 6.785367 -0.512810 -1.223544
 23
 13.689233
  C 0.838917 0.215539 0.589506
  C 2.441649 0.151440 0.428776
  H 3.072269 0.476134 1.235560
  C 3.042564 -0.357717 -0.838263
  C 4.413904 -0.431225 -1.022475
  C 5.130073 -0.878812 -2.138662
  C 4.654976 -1.402388 -3.444481
  C 3.169931 -1.528584 -3.760388
  C 2.983886 -2.092503 -5.167010
  O 6.441475 -0.861367 -2.095376
  H 0.541607 0.603673 1.554865
  H 0.419041 -0.778970 0.454453
  H 0.418432 0.839385 -0.196359
  H 2.367119 -0.669371 -1.613066
  H 5.015664 -0.094071 -0.183562
  H 5.124614 -2.385915 -3.564793
  H 5.125185 -0.774885 -4.210967
  H 2.687853 -0.551425 -3.716938
  H 2.687312 -2.204812 -3.054042
  H 3.435087 -1.441404 -5.911917
  H 1.925828 -2.184700 -5.397891
  H 3.434586 -3.078103 -5.255692
  H 6.818213 -0.526826 -1.258445
 23
 42.118013
  C 0.704936 0.237455 0.644099
  C 2.490555 0.165509 0.463084
  H 3.127324 0.487272 1.261055
  C 3.074202 -0.377785 -0.887119
  C 4.434608 -0.443453 -1.052041
  C 5.153735 -0.887299 -2.159301
  C 4.673698 -1.408900 -3.460562
  C 3.187221 -1.530472 -3.764980
  C 2.995243 -2.093960 -5.171168
  O 6.459151 -0.866938 -2.109220
  H 0.469157 0.630249 1.619525
  H 0.329798 -0.768333 0.505974
  H 0.328868 0.866274 -0.152444
  H 2.362184 -0.675427 -1.626660
  H 5.033547 -0.107175 -0.214940
  H 5.141557 -2.393456 -3.582215
  H 5.141973 -0.781369 -4.228498
  H 2.709442 -0.551659 -3.721691
  H 2.708888 -2.208122 -3.057833
  H 3.444931 -1.443480 -5.917400
  H 1.936699 -2.184985 -5.399147
  H 3.444399 -3.080058 -5.261485
  H 6.841523 -0.533188 -1.275197
 23
 74.100778
  C 0.544831 0.258748 0.693100
  C 2.547021 0.174543 0.496922
  H 3.184413 0.488158 1.293040
  C 3.113626 -0.382192 -0.904738
  C 4.468842 -0.448451 -1.067579
  C 5.190386 -0.896647 -2.186574
  C 4.700420 -1.416442 -3.480498
  C 3.209285 -1.534160 -3.771519
  C 3.000244 -2.097829 -5.175448
  O 6.483424 -0.877876 -2.143914
  H 0.363254 0.648732 1.677839
  H 0.215532 -0.754560 0.550185
  H 0.220924 0.902224 -0.104947
  H 2.366280 -0.665953 -1.619111
  H 5.073616 -0.113006 -0.230147
  H 5.166278 -2.400461 -3.608482
  H 5.165493 -0.793731 -4.253771
  H 2.735013 -0.553779 -3.723396
  H 2.735912 -2.209737 -3.058723
  H 3.444467 -1.449281 -5.926944
  H 1.938709 -2.185356 -5.392533
  H 3.445058 -3.085653 -5.269995
  H 6.874660 -0.545070 -1.312423
 23
 98.774926
  C 0.297201 0.291612 0.680482
  C 2.700732 0.087966 0.452147
  H 3.335000 0.333593 1.284693
  C 3.175584 -0.367024 -0.853716
  C 4.541634 -0.448938 -1.061311
  C 5.231120 -0.879636 -2.205363
  C 4.708230 -1.411928 -3.487520
  C 3.217005 -1.535701 -3.746084
  C 2.980923 -2.111191 -5.140279
  O 6.541077 -0.844124 -2.202680
  H 0.214827 0.617858 1.699444
  H 0.000903 -0.719230 0.460760
  H 0.098242 1.019457 -0.086525
  H 2.414848 -0.605521 -1.566753
  H 5.169952 -0.133671 -0.236063
  H 5.181694 -2.392375 -3.629583
  H 5.149150 -0.784042 -4.272581
  H 2.739925 -0.555744 -3.694295
  H 2.759965 -2.205017 -3.016584
  H 3.410260 -1.469530 -5.905397
  H 1.916155 -2.200466 -5.335647
  H 3.423912 -3.099408 -5.234951
  H 6.957359 -0.509335 -1.382110
 23
 115.802069
  C 0.083397 0.340200 0.667676
  C 2.804668 0.022531 0.431673
  H 3.429476 0.233804 1.272463
  C 3.234232 -0.410905 -0.823351
  C 4.609999 -0.465603 -1.067123
  C 5.276405 -0.865899 -2.224746
  C 4.725840 -1.394348 -3.499783
  C 3.220169 -1.539648 -3.719280
  C 2.952574 -2.110158 -5.108415
  O 6.596598 -0.823836 -2.249789
  H 0.080351 0.642572 1.693136
  H -0.167267 -0.672865 0.435807
  H -0.010652 1.085913 -0.092129
  H 2.436830 -0.638389 -1.515787
  H 5.252969 -0.146881 -0.253620
  H 5.222273 -2.361714 -3.656969
  H 5.155394 -0.760740 -4.286246
  H 2.741323 -0.562866 -3.642627
  H 2.799362 -2.219243 -2.977224
  H 3.352407 -1.458497 -5.881897
  H 1.882955 -2.213184 -5.275862
  H 3.405974 -3.092330 -5.220761
  H 7.028307 -0.496263 -1.434098
 23
 116.958508
  C -0.073559 0.244309 0.371432
  C 3.006384 -0.000409 0.497971
  H 3.371421 0.240712 1.471848
  C 3.412196 -0.371195 -0.695088
  C 4.800039 -0.445850 -1.041770
  C 5.335313 -0.853339 -2.222858
  C 4.700129 -1.366794 -3.475622
  C 3.180398 -1.486531 -3.592818
  C 2.803808 -2.055523 -4.964055
  O 6.667232 -0.866084 -2.363603
  H -0.134755 0.528531 1.414901
  H -0.167825 -0.791390 0.095426
  H -0.008633 1.001335 -0.389560
  H 2.656371 -0.608989 -1.429848
  H 5.492738 -0.138951 -0.269202
  H 5.140693 -2.352942 -3.652656
  H 5.073627 -0.743129 -4.293936
  H 2.712046 -0.506545 -3.494545
  H 2.793915 -2.163401 -2.829317
  H 3.158545 -1.408623 -5.762674
  H 1.722666 -2.142176 -5.054691
  H 3.234910 -3.045191 -5.105509
  H 7.153382 -0.556702 -1.578454
 23
 116.823758
  C -0.193545 0.158646 0.129911
  C 3.157395 -0.013619 0.550067
  H 3.335492 0.252782 1.569002
  C 3.590212 -0.370927 -0.605519
  C 4.963628 -0.453991 -1.025260
  C 5.399803 -0.844346 -2.249913
  C 4.674266 -1.342975 -3.455539
  C 3.151412 -1.424766 -3.478678
  C 2.686140 -1.995009 -4.806294
  O 6.724582 -0.896080 -2.484063
  H -0.370710 0.433901 1.141848
  H -0.263997 -0.871689 -0.165605
  H -0.107343 0.923281 -0.620296
  H 2.842698 -0.644470 -1.348561
  H 5.693040 -0.138908 -0.308356
  H 5.085420 -2.342905 -3.652194
  H 5.014379 -0.726906 -4.290939
  H 2.716082 -0.431587 -3.363161
  H 2.798945 -2.087723 -2.685384
  H 3.010844 -1.367615 -5.633144
  H 1.603343 -2.057865 -4.837989
  H 3.085119 -2.993074 -4.960407
  H 7.265007 -0.638683 -1.728580
 23
 115.322182
  C -0.254505 0.016728 -0.228784
  C 3.301833 -0.013635 0.631451
  H 3.242327 0.265488 1.650198
  C 3.784239 -0.350905 -0.491222
  C 5.118872 -0.465680 -1.016969
  C 5.457253 -0.834689 -2.272798
  C 4.625199 -1.313254 -3.415615
  C 3.114937 -1.340555 -3.321696
  C 2.520822 -1.916302 -4.604546
  O 6.759945 -0.942182 -2.601642
  H -0.555079 0.263004 0.770370
  H -0.245490 -1.001157 -0.550896
  H -0.103014 0.794107 -0.946595
  H 3.014091 -0.631903 -1.232661
  H 5.896379 -0.125805 -0.356014
  H 4.981295 -2.319808 -3.634615
  H 4.922501 -0.711096 -4.278499
  H 2.726829 -0.328132 -3.190756
  H 2.807087 -1.984285 -2.494845
  H 2.804506 -1.315374 -5.465630
  H 1.437432 -1.935484 -4.549039
  H 2.868881 -2.932542 -4.771657
  H 7.363902 -0.737127 -1.879721
 23
 113.861017
  C -0.284539 -0.159857 -0.588928
  C 3.429042 0.032006 0.688481
  H 3.178796 0.322133 1.671311
  C 3.949987 -0.302931 -0.403307
  C 5.243306 -0.477673 -1.010789
  C 5.497170 -0.864477 -2.278842
  C 4.573176 -1.307880 -3.365509
  C 3.067724 -1.254866 -3.169043
  C 2.356976 -1.809168 -4.395421
  O 6.764766 -1.003917 -2.695266
  H -0.692676 0.069367 0.373142
  H -0.200288 -1.178000 -0.898450
  H -0.099626 0.623954 -1.291333
  H 3.155685 -0.581925 -1.122092
  H 6.066039 -0.157634 -0.381473
  H 4.869578 -2.337250 -3.605347
  H 4.847179 -0.719273 -4.246483
  H 2.743568 -0.220529 -3.028708
  H 2.781908 -1.881398 -2.318147
  H 2.615516 -1.232741 -5.282642
  H 1.278553 -1.767083 -4.267276
  H 2.637720 -2.845043 -4.569808
  H 7.424633 -0.792521 -2.020179
 23
 112.009804
  C -0.299484 -0.359458 -0.891978
  C 3.536435 0.102231 0.742026
  H 3.166016 0.462016 1.669418
  C 4.066354 -0.255785 -0.342485
  C 5.316723 -0.483830 -0.996226
  C 5.510622 -0.898437 -2.268788
  C 4.517477 -1.304899 -3.317941
  C 3.023242 -1.170320 -3.051595
  C 2.218432 -1.697040 -4.240951
  O 6.749876 -1.064537 -2.742656
  H -0.781704 -0.092508 0.024850
  H -0.151775 -1.392867 -1.127101
  H -0.080088 0.394292 -1.619368
  H 3.227591 -0.527485 -1.032779
  H 6.169958 -0.217551 -0.389840
  H 4.746987 -2.346932 -3.564683
  H 4.777929 -0.731647 -4.215039
  H 2.759697 -0.118170 -2.910756
  H 2.741562 -1.778369 -2.184071
  H 2.462257 -1.142237 -5.143500
  H 1.151929 -1.594818 -4.059142
  H 2.433801 -2.748364 -4.418826
  H 7.444707 -0.860653 -2.095477
 23
 110.842215
  C -0.179935 -0.611704 -1.081088
  C 3.607897 0.279057 0.759433
  H 3.090375 0.641842 1.607630
  C 4.069372 -0.174538 -0.324821
  C 5.292204 -0.450187 -0.991627
  C 5.460225 -0.957164 -2.232838
  C 4.439743 -1.348715 -3.260892
  C 2.964671 -1.069185 -3.001624
  C 2.114020 -1.550332 -4.178294
  O 6.687862 -1.178229 -2.712668
  H -0.725563 -0.308953 -0.213775
  H 0.063002 -1.643717 -1.219374
  H 0.047635 0.105780 -1.841482
  H 3.170967 -0.469004 -0.930401
  H 6.167700 -0.219392 -0.402758
  H 4.582838 -2.417627 -3.446532
  H 4.741471 -0.848772 -4.186921
  H 2.802314 0.004457 -2.886757
  H 2.626255 -1.624483 -2.119875
  H 2.405766 -1.041359 -5.093607
  H 1.060692 -1.348042 -4.000176
  H 2.234205 -2.620254 -4.330625
  H 7.393556 -0.952231 -2.090309
