 19
 0.000000
  C 0.980511 0.171666 0.479380
  C 2.434257 0.118545 0.347116
  H 3.058935 0.447427 1.166079
  C 3.005616 -0.347753 -0.814418
  C 4.393139 -0.423216 -1.002835
  C 5.086538 -0.866307 -2.107943
  C 4.648608 -1.385966 -3.403811
  C 3.175573 -1.521861 -3.742734
  H 3.074306 -1.924437 -4.746815
  H 6.167021 -0.833714 -2.026893
  H 0.658282 0.556771 1.438413
  H 0.553439 -0.823468 0.331060
  H 0.553344 0.787879 -0.315911
  H 2.314051 -0.654936 -1.579558
  H 4.995197 -0.087620 -0.166421
  H 5.139253 -2.363159 -3.522477
  H 5.139387 -0.761665 -4.164755
  H 2.676355 -0.556317 -3.718282
  H 2.676369 -2.203114 -3.058018
 19
 1.412333
  C 0.977141 0.123622 0.524611
  C 2.405681 0.228101 0.254352
  H 3.013236 0.827541 0.920053
  C 2.992292 -0.414028 -0.811985
  C 4.380645 -0.556385 -0.962102
  C 5.084376 -0.969994 -2.068815
  C 4.660983 -1.362708 -3.410972
  C 3.192168 -1.386605 -3.798606
  H 3.102579 -1.694004 -4.837009
  H 6.160977 -0.993044 -1.947029
  H 0.622093 0.922517 1.163355
  H 0.788964 -0.824916 1.036073
  H 0.390508 0.078472 -0.391249
  H 2.307753 -0.742651 -1.577301
  H 4.968309 -0.325597 -0.081201
  H 5.104051 -2.352475 -3.594470
  H 5.215427 -0.721332 -4.110037
  H 2.745614 -0.402011 -3.703987
  H 2.635366 -2.099833 -3.197733
 19
 4.911298
  C 0.988639 0.055274 0.581887
  C 2.369261 0.306761 0.190221
  H 2.919485 1.063578 0.737859
  C 2.983459 -0.373396 -0.841522
  C 4.363008 -0.593908 -0.952119
  C 5.069319 -1.041191 -2.042582
  C 4.664741 -1.386120 -3.406320
  C 3.210890 -1.303427 -3.836098
  H 3.129207 -1.622863 -4.871889
  H 6.136271 -1.153324 -1.884824
  H 0.507637 0.950950 0.962845
  H 1.005047 -0.672019 1.401096
  H 0.402002 -0.390235 -0.216380
  H 2.325711 -0.574570 -1.677102
  H 4.932307 -0.446374 -0.041605
  H 5.042500 -2.401296 -3.591499
  H 5.278860 -0.766072 -4.074566
  H 2.839096 -0.282819 -3.776438
  H 2.584706 -1.964345 -3.242328
 19
 16.031088
  C 1.013599 -0.054618 0.590901
  C 2.313839 0.372168 0.083395
  H 2.696125 1.333769 0.413097
  C 3.044646 -0.423194 -0.785652
  C 4.402010 -0.682060 -0.918546
  C 5.087687 -1.117807 -2.025331
  C 4.658667 -1.373860 -3.407343
  C 3.203468 -1.184756 -3.803990
  H 3.087681 -1.437145 -4.855578
  H 6.146661 -1.290806 -1.875579
  H 0.377154 0.793397 0.803377
  H 1.187543 -0.604032 1.519989
  H 0.503934 -0.740418 -0.084416
  H 2.349235 -0.497346 -1.623983
  H 4.971301 -0.602363 -0.000050
  H 4.965656 -2.401642 -3.641326
  H 5.295746 -0.753725 -4.051680
  H 2.894506 -0.150006 -3.681703
  H 2.552817 -1.846809 -3.239057
 19
 32.623913
  C 1.020392 -0.181020 0.547361
  C 2.249090 0.360376 -0.038620
  H 2.452721 1.417123 0.131627
  C 3.159436 -0.430854 -0.713484
  C 4.476603 -0.750814 -0.895946
  C 5.130491 -1.179381 -2.024447
  C 4.646263 -1.345542 -3.407385
  C 3.188821 -1.040420 -3.720239
  H 3.003556 -1.231381 -4.775026
  H 6.177432 -1.419172 -1.901723
  H 0.262653 0.584431 0.638596
  H 1.270794 -0.551218 1.543703
  H 0.622146 -1.026813 -0.009319
  H 2.382531 -0.328718 -1.529940
  H 5.054039 -0.736851 0.022726
  H 4.868118 -2.379788 -3.698716
  H 5.292958 -0.735225 -4.050479
  H 2.961821 0.007090 -3.536391
  H 2.525245 -1.687518 -3.152876
 19
 38.971703
  C 1.023552 -0.315364 0.495035
  C 2.220124 0.299239 -0.138048
  H 2.271393 1.388495 -0.075361
  C 3.284205 -0.391468 -0.640528
  C 4.545446 -0.790600 -0.878965
  C 5.163754 -1.226589 -2.032785
  C 4.624516 -1.319291 -3.407742
  C 3.178058 -0.904179 -3.639504
  H 2.928384 -1.047741 -4.688917
  H 6.194592 -1.534359 -1.939850
  H 0.170109 0.355699 0.469242
  H 1.269472 -0.502698 1.541406
  H 0.761628 -1.271866 0.052124
  H 2.377262 -0.092255 -1.427554
  H 5.133173 -0.837237 0.033774
  H 4.761158 -2.355732 -3.739681
  H 5.281618 -0.730003 -4.061160
  H 3.037496 0.151640 -3.416420
  H 2.498731 -1.523493 -3.057278
 19
 37.272414
  C 1.048525 -0.350588 0.494109
  C 2.199744 0.328108 -0.209635
  H 2.223906 1.413947 -0.092233
  C 3.318981 -0.325459 -0.636818
  C 4.538510 -0.780027 -0.896618
  C 5.167082 -1.260246 -2.028956
  C 4.626920 -1.359843 -3.397480
  C 3.196165 -0.894087 -3.616490
  H 2.923830 -1.044531 -4.658322
  H 6.183309 -1.598860 -1.916351
  H 0.157835 0.271348 0.503837
  H 1.336998 -0.516283 1.531301
  H 0.819324 -1.318172 0.060133
  H 2.163441 0.128392 -1.392176
  H 5.110287 -0.820185 0.031992
  H 4.723893 -2.405950 -3.712737
  H 5.299540 -0.806686 -4.063765
  H 3.101395 0.167874 -3.405225
  H 2.505128 -1.474889 -3.010184
 19
 33.560965
  C 1.074942 -0.403534 0.495509
  C 2.160371 0.330873 -0.286357
  H 2.225688 1.398982 -0.057409
  C 3.308624 -0.311990 -0.683100
  C 4.511224 -0.775847 -0.936071
  C 5.184448 -1.270247 -2.035195
  C 4.659759 -1.365591 -3.411308
  C 3.237097 -0.873766 -3.620852
  H 2.951138 -1.013755 -4.660406
  H 6.195679 -1.614496 -1.890987
  H 0.186559 0.210862 0.612583
  H 1.448054 -0.629734 1.492243
  H 0.806243 -1.341947 0.021172
  H 1.893588 0.313731 -1.390339
  H 5.049457 -0.805679 0.019182
  H 4.741486 -2.413384 -3.727081
  H 5.343740 -0.820611 -4.073733
  H 3.164688 0.187586 -3.398262
  H 2.542552 -1.441509 -3.006670
 19
 30.429282
  C 1.083617 -0.440703 0.463950
  C 2.136074 0.323482 -0.350676
  H 2.320423 1.323185 0.062623
  C 3.290442 -0.345898 -0.723229
  C 4.470015 -0.861517 -0.953766
  C 5.192268 -1.319552 -2.036887
  C 4.683117 -1.344632 -3.421783
  C 3.277900 -0.797331 -3.597991
  H 2.969425 -0.889805 -4.636082
  H 6.186652 -1.698561 -1.871191
  H 0.225473 0.198881 0.640407
  H 1.496146 -0.744362 1.421896
  H 0.753831 -1.333898 -0.058184
  H 1.709196 0.517797 -1.351118
  H 4.949830 -0.961025 0.032036
  H 4.734753 -2.378800 -3.784386
  H 5.385008 -0.786490 -4.053424
  H 3.247840 0.256002 -3.332505
  H 2.573323 -1.356832 -2.986772
 19
 25.084783
  C 1.176021 -0.648834 0.179036
  C 2.085540 0.357945 -0.546382
  H 2.374206 1.171063 0.131580
  C 3.286594 -0.227965 -1.062791
  C 4.514731 -0.728220 -0.974499
  C 5.226758 -1.330522 -1.994773
  C 4.564835 -1.463628 -3.313661
  C 3.339141 -0.595944 -3.346511
  H 2.646519 -0.841737 -4.146820
  H 6.196095 -1.764517 -1.816005
  H 0.314073 -0.127271 0.584603
  H 1.702247 -1.135509 0.995144
  H 0.820087 -1.416066 -0.506706
  H 1.505174 0.817290 -1.361835
  H 4.963955 -0.679895 0.011937
  H 4.322015 -2.520371 -3.468245
  H 5.250123 -1.194710 -4.117944
  H 3.604583 0.455888 -3.418415
  H 2.794724 -0.781327 -2.373200
