 32
 0.000000
  C 0.995919 0.133184 0.382278
  C 2.474959 0.139601 0.397843
  C 3.241344 0.613250 1.576887
  C 2.445617 1.098677 2.785688
  C 3.377959 1.548692 3.905838
  C 3.094363 -0.323385 -0.755027
  C 4.472149 -0.412359 -0.976867
  C 5.131358 -0.866652 -2.109178
  C 4.616701 -1.387686 -3.407683
  C 3.123042 -1.500963 -3.690680
  C 2.885980 -2.062364 -5.089851
  O 6.456643 -0.870279 -2.118454
  H 0.547709 0.501033 1.298355
  H 0.631306 -0.881026 0.213363
  H 0.630991 0.748750 -0.441136
  H 3.897308 1.429116 1.252057
  H 3.897520 -0.200470 1.906587
  H 1.806897 0.298207 3.164382
  H 1.806711 1.938605 2.505543
  H 4.013999 0.730430 4.237557
  H 2.799162 1.891828 4.760395
  H 4.013784 2.369219 3.579324
  H 2.434931 -0.640573 -1.544794
  H 5.098162 -0.082698 -0.155609
  H 5.066315 -2.378812 -3.537783
  H 5.066609 -0.761636 -4.186830
  H 2.650971 -0.519072 -3.634450
  H 2.650588 -2.171419 -2.971371
  H 3.320398 -1.416427 -5.849794
  H 1.818747 -2.140050 -5.284078
  H 3.320021 -3.054609 -5.192431
  H 6.842557 -0.536863 -1.286960
 32
 -0.074334
  C 0.966633 -0.276048 0.579915
  C 2.435052 -0.157110 0.504537
  C 3.217622 0.540537 1.547621
  C 2.452199 1.134401 2.726243
  C 3.414287 1.809031 3.699835
  C 3.051327 -0.703398 -0.617833
  C 4.427587 -0.741745 -0.838204
  C 5.111951 -1.178660 -1.968420
  C 4.618042 -1.454502 -3.345238
  C 3.128759 -1.490264 -3.662535
  C 2.924224 -1.719052 -5.160900
  O 6.422700 -1.317641 -1.911927
  H 0.548975 0.133387 1.492031
  H 0.673169 -1.322957 0.488499
  H 0.512804 0.231648 -0.272228
  H 3.787340 1.344611 1.069682
  H 3.963985 -0.156610 1.943376
  H 1.909626 0.351958 3.257909
  H 1.733545 1.875861 2.374993
  H 4.134704 1.094328 4.094688
  H 2.867842 2.233169 4.540005
  H 3.960014 2.615709 3.212585
  H 2.397194 -1.152881 -1.349377
  H 5.058720 -0.423163 -0.018513
  H 5.079651 -2.398562 -3.661061
  H 5.088526 -0.690461 -3.979271
  H 2.660454 -0.543946 -3.390765
  H 2.646763 -2.305801 -3.122410
  H 3.372684 -0.917083 -5.742178
  H 1.864047 -1.754067 -5.397091
  H 3.370490 -2.659152 -5.476035
  H 6.819628 -1.126342 -1.042558
 32
 1.303976
  C 1.024543 -0.647370 0.714075
  C 2.474729 -0.413000 0.570218
  C 3.210323 0.526936 1.449467
  C 2.423518 1.216475 2.561333
  C 3.338901 2.127047 3.376253
  C 3.112152 -1.049134 -0.489963
  C 4.482175 -1.017984 -0.747832
  C 5.137396 -1.454973 -1.895720
  C 4.636282 -1.465230 -3.293840
  C 3.140806 -1.338509 -3.568082
  C 2.893946 -1.201215 -5.070055
  O 6.417333 -1.761857 -1.840276
  H 0.598880 -0.169560 1.586581
  H 0.820201 -1.716866 0.752634
  H 0.505122 -0.278178 -0.171793
  H 3.666429 1.300283 0.821588
  H 4.046621 -0.012722 1.908312
  H 1.984177 0.474373 3.230166
  H 1.618955 1.819193 2.137107
  H 4.146178 1.558765 3.835370
  H 2.778222 2.615154 4.170993
  H 3.776239 2.902000 2.749009
  H 2.488925 -1.648590 -1.137117
  H 5.128120 -0.654897 0.042613
  H 5.030341 -2.363856 -3.782700
  H 5.152370 -0.626734 -3.780777
  H 2.737375 -0.458752 -3.062844
  H 2.616869 -2.226325 -3.212195
  H 3.377900 -0.309827 -5.464753
  H 1.827985 -1.124728 -5.273717
  H 3.278924 -2.065330 -5.608422
  H 6.806476 -1.736465 -0.949072
 32
 5.162173
  C 1.109580 -0.967692 0.814543
  C 2.535918 -0.655563 0.609304
  C 3.196434 0.487457 1.283123
  C 2.369963 1.288134 2.285043
  C 3.221828 2.375690 2.929306
  C 3.224038 -1.410856 -0.327571
  C 4.576153 -1.291866 -0.651112
  C 5.171444 -1.690339 -1.849554
  C 4.638670 -1.433529 -3.213002
  C 3.161276 -1.079456 -3.359598
  C 2.858752 -0.648268 -4.795083
  O 6.400292 -2.157436 -1.867276
  H 0.661210 -0.394989 1.612978
  H 0.980643 -2.030274 1.015672
  H 0.558584 -0.765074 -0.102536
  H 3.563119 1.175636 0.515917
  H 4.090423 0.115092 1.795004
  H 1.989360 0.633834 3.069295
  H 1.522358 1.758522 1.785934
  H 4.075503 1.945793 3.447437
  H 2.637198 2.935029 3.654064
  H 3.589242 3.074714 2.182775
  H 2.658034 -2.166113 -0.851683
  H 5.244388 -0.873767 0.094524
  H 4.884527 -2.291218 -3.849066
  H 5.245869 -0.604274 -3.597223
  H 2.898910 -0.266717 -2.679762
  H 2.544726 -1.945159 -3.117566
  H 3.438440 0.232229 -5.068087
  H 1.803765 -0.405136 -4.904204
  H 3.095812 -1.445036 -5.498597
  H 6.790748 -2.325555 -0.988958
 32
 13.250177
  C 1.172438 -1.078935 0.798888
  C 2.605974 -0.773106 0.617101
  C 3.212240 0.469988 1.162039
  C 2.332099 1.352062 2.043850
  C 3.112106 2.577165 2.516340
  C 3.351751 -1.620979 -0.173686
  C 4.675716 -1.419670 -0.587469
  C 5.145657 -1.805118 -1.851906
  C 4.595117 -1.372332 -3.158797
  C 3.188942 -0.783780 -3.141897
  C 2.819876 -0.238563 -4.518501
  O 6.335194 -2.352125 -1.975580
  H 0.697061 -0.446678 1.543220
  H 1.031910 -2.125016 1.062650
  H 0.650961 -0.924467 -0.148589
  H 3.564399 1.082306 0.324580
  H 4.107286 0.191576 1.732703
  H 1.995616 0.792234 2.921008
  H 1.454875 1.689637 1.486988
  H 3.978447 2.284554 3.104802
  H 2.483868 3.210010 3.135794
  H 3.453478 3.169736 1.671698
  H 2.862396 -2.517686 -0.532946
  H 5.351797 -0.875208 0.061898
  H 4.625644 -2.225868 -3.843090
  H 5.312579 -0.636268 -3.542232
  H 3.134709 0.025381 -2.411148
  H 2.469579 -1.548213 -2.852035
  H 3.502051 0.551901 -4.815502
  H 1.813828 0.170310 -4.509297
  H 2.862857 -1.020131 -5.269413
  H 6.784482 -2.575869 -1.134688
 32
 32.384033
  C 1.265004 -1.143964 0.773408
  C 2.711792 -0.864195 0.663832
  C 3.268092 0.431017 1.159098
  C 2.328368 1.328606 1.953890
  C 3.046945 2.597666 2.388570
  C 3.537162 -1.739551 0.025271
  C 4.825243 -1.387138 -0.474555
  C 5.016416 -1.801333 -1.807175
  C 4.486379 -1.380802 -3.119345
  C 3.154834 -0.647872 -3.095429
  C 2.779120 -0.172134 -4.490414
  O 6.210584 -2.369834 -2.028470
  H 0.770201 -0.523371 1.512313
  H 1.093086 -2.197146 0.994466
  H 0.795189 -0.956899 -0.192015
  H 3.658401 1.010423 0.324719
  H 4.102463 0.175806 1.819384
  H 1.939690 0.812293 2.829686
  H 1.485738 1.625524 1.328096
  H 3.880014 2.374347 3.047295
  H 2.361933 3.259526 2.908242
  H 3.425640 3.136586 1.524233
  H 3.172058 -2.736290 -0.191598
  H 5.442624 -0.690255 0.057782
  H 4.433694 -2.247311 -3.782834
  H 5.268480 -0.751111 -3.552661
  H 3.227258 0.212353 -2.432284
  H 2.376937 -1.303961 -2.712756
  H 3.508123 0.540503 -4.867985
  H 1.808672 0.316213 -4.473953
  H 2.719684 -1.006908 -5.183341
  H 6.685815 -2.691973 -1.235375
 32
 58.790695
  C 1.347245 -1.321030 1.076445
  C 2.742587 -0.923535 0.781071
  C 3.245397 0.432071 1.186026
  C 2.298156 1.322032 1.994813
  C 3.016772 2.606310 2.413204
  C 3.565413 -1.757896 0.110321
  C 4.847394 -1.319621 -0.414354
  C 4.818843 -1.677844 -1.774250
  C 4.457173 -1.309213 -3.157095
  C 3.147981 -0.537688 -3.340083
  C 2.956196 -0.142027 -4.800164
  O 6.049533 -2.325608 -1.992420
  H 0.881512 -0.657984 1.797322
  H 1.299814 -2.345384 1.439403
  H 0.762058 -1.278222 0.153530
  H 3.524302 0.989949 0.283259
  H 4.177173 0.305613 1.752694
  H 2.015907 0.799645 2.916985
  H 1.392374 1.563515 1.440036
  H 3.906476 2.377931 2.995454
  H 2.364845 3.223472 3.024517
  H 3.306707 3.189259 1.542239
  H 3.246775 -2.781777 -0.082513
  H 5.517928 -0.662467 0.124796
  H 4.429783 -2.217936 -3.761513
  H 5.299088 -0.745422 -3.555565
  H 3.130279 0.344817 -2.709948
  H 2.315624 -1.185600 -3.058120
  H 3.764079 0.514853 -5.135425
  H 2.017787 0.398730 -4.927642
  H 2.928577 -1.012136 -5.454025
  H 6.531006 -2.642441 -1.205363
 32
 92.253180
  C 1.360099 -1.387013 0.876211
  C 2.765099 -0.973235 0.630633
  C 3.268922 0.366813 1.070749
  C 2.310504 1.239778 1.881005
  C 2.988320 2.546171 2.276231
  C 3.615875 -1.828331 0.021183
  C 4.999044 -1.349981 -0.296518
  C 4.764212 -1.480253 -1.638164
  C 4.394405 -1.220590 -3.024322
  C 3.080500 -0.441895 -3.158302
  C 2.809145 -0.098684 -4.619751
  O 6.168157 -2.093168 -1.899311
  H 0.867088 -0.777009 1.619246
  H 1.301138 -2.434574 1.169495
  H 0.807249 -1.296383 -0.054132
  H 3.507066 0.929509 0.160277
  H 4.208919 0.249388 1.611746
  H 1.999419 0.723193 2.792195
  H 1.424583 1.469161 1.284930
  H 3.855216 2.363056 2.906143
  H 2.299072 3.179988 2.824988
  H 3.315505 3.095860 1.395236
  H 3.338617 -2.863459 -0.106257
  H 5.658670 -0.806659 0.352290
  H 4.309762 -2.167711 -3.558407
  H 5.228424 -0.652843 -3.442857
  H 3.120181 0.474148 -2.571961
  H 2.267835 -1.059496 -2.779416
  H 3.594246 0.532539 -5.034045
  H 1.867836 0.430677 -4.713446
  H 2.753483 -1.004931 -5.213331
  H 6.657858 -2.477107 -1.157478
 32
 111.834368
  C 1.387765 -1.322860 0.697325
  C 2.789453 -0.887802 0.520576
  C 3.279151 0.399128 1.074290
  C 2.313870 1.207759 1.940226
  C 3.002777 2.463001 2.469888
  C 3.646216 -1.727803 -0.149319
  C 5.065547 -1.262694 -0.356541
  C 4.733977 -1.347132 -1.610247
  C 4.334336 -1.229675 -2.959549
  C 2.993873 -0.488420 -3.128016
  C 2.707573 -0.256026 -4.603915
  O 6.660358 -2.123529 -1.692050
  H 0.855249 -0.727698 1.427011
  H 1.328754 -2.373696 0.970971
  H 0.871063 -1.229470 -0.259640
  H 3.614451 1.029449 0.242543
  H 4.177338 0.195932 1.667283
  H 1.980910 0.612211 2.791243
  H 1.439909 1.508176 1.362677
  H 3.871885 2.207917 3.071712
  H 2.318685 3.036721 3.090908
  H 3.328964 3.102617 1.652682
  H 3.325211 -2.728117 -0.394049
  H 5.720775 -0.759128 0.321148
  H 4.270859 -2.216813 -3.430736
  H 5.141952 -0.690463 -3.470911
  H 3.040258 0.472148 -2.614714
  H 2.193940 -1.083441 -2.688674
  H 3.483331 0.355410 -5.057875
  H 1.759638 0.262006 -4.723639
  H 2.653945 -1.196692 -5.145984
  H 7.176576 -2.440488 -0.946607
 32
 99.017712
  C 1.516270 -1.434176 0.575284
  C 2.895330 -0.956990 0.394031
  C 3.343281 0.343879 0.925960
  C 2.349249 1.150729 1.756393
  C 3.005182 2.432392 2.261231
  C 3.811187 -1.794211 -0.257634
  C 5.253893 -1.339711 -0.383704
  C 4.740390 -1.386166 -1.605747
  C 4.224628 -1.188410 -2.924036
  C 2.916367 -0.375706 -2.969017
  C 2.529306 -0.082923 -4.411186
  O 6.747967 -2.269788 -0.935516
  H 0.956320 -0.840968 1.286903
  H 1.491970 -2.482448 0.871453
  H 1.000469 -1.385362 -0.385330
  H 3.677499 0.964328 0.085714
  H 4.241906 0.175639 1.531199
  H 2.016199 0.570541 2.617521
  H 1.477626 1.416916 1.156713
  H 3.871535 2.210171 2.880923
  H 2.302400 3.006265 2.859945
  H 3.328450 3.058468 1.432340
  H 3.525098 -2.821144 -0.440279
  H 5.879621 -0.723342 0.230764
  H 4.057517 -2.154510 -3.417043
  H 5.009272 -0.676925 -3.494260
  H 3.052745 0.562886 -2.435855
  H 2.122720 -0.942661 -2.488312
  H 3.296290 0.505006 -4.909597
  H 1.601438 0.481718 -4.439390
  H 2.386290 -1.001964 -4.973017
  H 7.140613 -2.529711 -0.096841
 32
 54.792993
  C 1.698665 -1.641121 0.599160
  C 3.038060 -1.094639 0.339548
  C 3.402334 0.278447 0.744372
  C 2.359918 1.101994 1.502759
  C 2.931362 2.468466 1.863059
  C 3.991993 -1.921083 -0.269401
  C 5.467155 -1.505970 -0.400062
  C 4.745221 -1.509177 -1.618320
  C 4.130083 -1.148685 -2.865099
  C 2.948189 -0.166478 -2.774973
  C 2.462177 0.201821 -4.169750
  O 6.428914 -2.523576 -0.331678
  H 1.120864 -1.038082 1.286867
  H 1.750072 -2.668445 0.959038
  H 1.152062 -1.691280 -0.346049
  H 3.697467 0.836184 -0.153913
  H 4.314573 0.228366 1.351047
  H 2.068434 0.591935 2.423893
  H 1.474035 1.246528 0.888876
  H 3.811646 2.370284 2.492609
  H 2.195869 3.053320 2.407485
  H 3.207556 3.024633 0.970071
  H 3.766274 -2.987997 -0.299398
  H 5.875183 -0.609927 0.077852
  H 3.774457 -2.052382 -3.372060
  H 4.903726 -0.717506 -3.498987
  H 3.261608 0.739851 -2.252788
  H 2.133003 -0.628847 -2.219443
  H 3.251765 0.688251 -4.743091
  H 1.622389 0.888666 -4.103401
  H 2.135992 -0.681396 -4.716745
  H 6.674661 -2.707500 0.594029
 32
 48.545389
  C 1.737529 -1.718903 0.991400
  C 2.964846 -1.128736 0.463767
  C 3.317608 0.268732 0.730013
  C 2.354080 1.103976 1.581689
  C 2.896532 2.520940 1.757328
  C 3.800414 -1.951039 -0.319588
  C 5.373315 -1.606798 -0.467457
  C 4.529038 -1.560716 -1.595662
  C 4.111209 -1.181117 -2.916349
  C 3.064897 -0.049572 -2.937420
  C 2.693252 0.303927 -4.368554
  O 6.284602 -2.612047 -0.358071
  H 1.263004 -1.110625 1.741233
  H 1.912077 -2.714260 1.383420
  H 1.033772 -1.848279 0.158453
  H 3.460743 0.768224 -0.232440
  H 4.300970 0.296125 1.207992
  H 2.230924 0.653227 2.574151
  H 1.377157 1.158295 1.104097
  H 3.866793 2.510524 2.257918
  H 2.213587 3.114985 2.363643
  H 3.010508 3.016922 0.797376
  H 3.528607 -2.998120 -0.330803
  H 5.640662 -0.689152 0.074226
  H 3.658956 -2.049119 -3.423615
  H 4.996762 -0.888275 -3.499178
  H 3.479907 0.832170 -2.449426
  H 2.173295 -0.358576 -2.390791
  H 3.564501 0.638221 -4.923304
  H 1.961345 1.103383 -4.376971
  H 2.266097 -0.552521 -4.885246
  H 6.599601 -2.741835 0.548674
 32
 41.861836
  C 1.438746 -1.528047 0.919454
  C 2.752544 -1.042426 0.399343
  C 3.246110 0.328814 0.751667
  C 2.345354 1.194122 1.634906
  C 3.004318 2.546097 1.896074
  C 3.387740 -1.856719 -0.488986
  C 5.509515 -1.570630 -0.552209
  C 4.463890 -1.608467 -1.469625
  C 4.135764 -1.310153 -2.862474
  C 3.111806 -0.167539 -2.969475
  C 2.822995 0.136494 -4.430539
  O 6.549557 -2.361531 -0.682876
  H 1.037806 -0.894431 1.700010
  H 1.520421 -2.546916 1.292945
  H 0.716067 -1.552314 0.103610
  H 3.434684 0.877097 -0.177844
  H 4.212646 0.248603 1.257274
  H 2.167649 0.704892 2.593778
  H 1.384892 1.361549 1.145438
  H 3.957868 2.423322 2.406672
  H 2.365333 3.163793 2.523194
  H 3.178756 3.080380 0.964482
  H 2.943412 -2.838586 -0.647245
  H 5.538076 -0.815613 0.222942
  H 3.697629 -2.189362 -3.351718
  H 5.044902 -1.053808 -3.410559
  H 3.510872 0.725972 -2.488653
  H 2.189903 -0.452309 -2.464277
  H 3.726530 0.442030 -4.950857
  H 2.100210 0.945242 -4.506323
  H 2.413983 -0.733524 -4.936315
  H 7.103760 -2.454741 0.104939
 32
 15.721078
  C 1.257957 -1.356803 0.968526
  C 2.573747 -0.896915 0.457493
  C 3.169132 0.381480 0.940206
  C 2.349391 1.207219 1.934262
  C 3.111616 2.471358 2.327018
  C 3.101644 -1.609043 -0.588529
  C 5.477969 -1.319998 -0.652389
  C 4.295127 -1.440054 -1.365800
  C 4.175460 -1.400133 -2.845846
  C 3.125172 -0.366115 -3.280394
  C 3.072717 -0.263696 -4.798883
  O 6.613850 -1.728711 -1.150737
  H 0.908910 -0.781174 1.817736
  H 1.306736 -2.409879 1.243730
  H 0.509118 -1.278447 0.179220
  H 3.381090 1.012077 0.069288
  H 4.134200 0.174793 1.411374
  H 2.149396 0.628275 2.838086
  H 1.395786 1.497333 1.489249
  H 4.061895 2.224706 2.794110
  H 2.532028 3.057675 3.035883
  H 3.307133 3.094582 1.456330
  H 2.504834 -2.442004 -0.935238
  H 5.473359 -0.855393 0.323118
  H 3.873301 -2.377273 -3.245259
  H 5.148005 -1.159085 -3.285739
  H 3.382160 0.611302 -2.862732
  H 2.143249 -0.652300 -2.900603
  H 4.034766 0.046161 -5.200888
  H 2.329357 0.467941 -5.101256
  H 2.808802 -1.219723 -5.243481
  H 7.368442 -1.705912 -0.530117
 32
 12.794129
  C 1.023932 -0.970737 0.687396
  C 2.447455 -0.700585 0.375173
  C 3.179622 0.411466 1.042116
  C 2.447464 1.181476 2.137366
  C 3.362662 2.242626 2.740113
  C 3.021153 -1.460652 -0.598780
  C 5.480915 -1.007168 -0.687359
  C 4.260283 -1.208550 -1.297146
  C 4.242944 -1.270624 -2.801927
  C 2.956798 -0.746306 -3.420808
  C 3.062221 -0.740830 -4.943032
  O 6.546401 -1.019976 -1.446619
  H 0.665404 -0.401465 1.533166
  H 0.871584 -2.032621 0.884392
  H 0.403472 -0.710169 -0.173186
  H 3.496510 1.134551 0.283371
  H 4.091859 -0.000276 1.479109
  H 2.126324 0.501109 2.928096
  H 1.564859 1.674951 1.727288
  H 4.265801 1.797309 3.153487
  H 2.847418 2.780750 3.532376
  H 3.651461 2.971973 1.987794
  H 2.396048 -2.220245 -1.054855
  H 5.667585 -0.772261 0.349832
  H 4.394080 -2.296425 -3.150938
  H 5.086015 -0.697210 -3.189524
  H 2.780221 0.272871 -3.072671
  H 2.106303 -1.358974 -3.126642
  H 3.892404 -0.119320 -5.265372
  H 2.150569 -0.353951 -5.394320
  H 3.247299 -1.743725 -5.321671
  H 7.398866 -0.903550 -0.991127
