 20
 0.000000
  C 0.992075 0.129753 0.373098
  C 2.464397 0.138715 0.395684
  C 3.229193 0.610727 1.570564
  C 2.428973 1.093310 2.772469
  H 3.108198 1.408941 3.558728
  C 3.114102 -0.321416 -0.749341
  C 4.498166 -0.388019 -0.915348
  C 5.132927 -0.843280 -2.050217
  H 4.645260 -1.203463 -2.947082
  O 6.427316 -0.890829 -2.170373
  H 0.548178 0.498222 1.290526
  H 0.629710 -0.882928 0.191656
  H 0.629784 0.735503 -0.458438
  H 3.890265 1.421832 1.244866
  H 3.890128 -0.200371 1.896441
  H 1.795829 0.303253 3.169751
  H 1.795917 1.938829 2.513154
  H 2.494912 -0.651872 -1.572164
  H 5.130201 -0.060735 -0.100043
  H 6.922541 -0.576307 -1.388658
 20
 0.761296
  C 1.016581 0.179814 0.313894
  C 2.484490 0.108491 0.410475
  C 3.217881 0.692417 1.555735
  C 2.399118 1.064687 2.785902
  H 3.066951 1.421678 3.566065
  C 3.160139 -0.488713 -0.648186
  C 4.549711 -0.533176 -0.811972
  C 5.115908 -0.772879 -2.043640
  H 4.496494 -0.892123 -2.926072
  O 6.386092 -0.804542 -2.310485
  H 0.552197 0.633524 1.180542
  H 0.603348 -0.818505 0.162932
  H 0.736124 0.748045 -0.574953
  H 3.726475 1.596861 1.198129
  H 4.014139 0.004365 1.853641
  H 1.861188 0.202821 3.173338
  H 1.687914 1.859265 2.576227
  H 2.560667 -0.886628 -1.456366
  H 5.196045 -0.351986 0.034921
  H 6.972787 -0.706853 -1.532988
 20
 4.159829
  C 1.009754 0.176913 0.299081
  C 2.474468 0.056874 0.408128
  C 3.221267 0.735781 1.491300
  C 2.437990 1.068268 2.757577
  H 3.121765 1.452999 3.509757
  C 3.138047 -0.621811 -0.601231
  C 4.535645 -0.687454 -0.759581
  C 5.111826 -0.656719 -2.006044
  H 4.502104 -0.513144 -2.891295
  O 6.384353 -0.669447 -2.268075
  H 0.560456 0.682742 1.144336
  H 0.556774 -0.807799 0.179304
  H 0.758373 0.727467 -0.609507
  H 3.616493 1.674198 1.082205
  H 4.094828 0.136694 1.757341
  H 1.957470 0.180135 3.160289
  H 1.682918 1.830140 2.585712
  H 2.536574 -1.042817 -1.396945
  H 5.171668 -0.726929 0.114505
  H 6.961843 -0.816396 -1.491768
 20
 10.181922
  C 1.012057 0.178601 0.272351
  C 2.473837 0.012485 0.395787
  C 3.236588 0.732980 1.441679
  C 2.466402 1.101061 2.706844
  H 3.159895 1.506390 3.439391
  C 3.108651 -0.774937 -0.540357
  C 4.519628 -0.797988 -0.727379
  C 5.083079 -0.493870 -1.933746
  H 4.470895 -0.143307 -2.758951
  O 6.355669 -0.483180 -2.212029
  H 0.577629 0.724645 1.101343
  H 0.526754 -0.792327 0.172509
  H 0.787684 0.721061 -0.648272
  H 3.621239 1.661459 1.002837
  H 4.114570 0.142919 1.711716
  H 1.992422 0.223705 3.138851
  H 1.709260 1.857724 2.524150
  H 2.502366 -1.288120 -1.276333
  H 5.157694 -1.019942 0.119970
  H 6.933078 -0.813286 -1.495294
 20
 15.850550
  C 1.024648 0.167090 0.258960
  C 2.492081 0.027386 0.365191
  C 3.251979 0.739968 1.423429
  C 2.454248 1.120665 2.669533
  H 3.142595 1.473546 3.435623
  C 3.106311 -0.852652 -0.496198
  C 4.523168 -0.816688 -0.710786
  C 5.058358 -0.425585 -1.897759
  H 4.450964 0.068034 -2.646591
  O 6.326006 -0.407431 -2.203691
  H 0.596396 0.730381 1.077533
  H 0.557251 -0.818775 0.191685
  H 0.778822 0.687578 -0.666745
  H 3.669477 1.664632 0.998925
  H 4.099532 0.118155 1.716051
  H 1.925042 0.258290 3.065787
  H 1.740039 1.916174 2.477521
  H 2.504876 -1.445741 -1.172394
  H 5.175241 -1.126873 0.095237
  H 6.912062 -0.831664 -1.548904
 20
 24.841062
  C 1.064186 0.181082 0.217032
  C 2.535341 -0.030936 0.354455
  C 3.270527 0.701227 1.407548
  C 2.462505 1.143360 2.624099
  H 3.155993 1.524953 3.373321
  C 3.064379 -0.994118 -0.456484
  C 4.485500 -0.911981 -0.723590
  C 4.991168 -0.308328 -1.820092
  H 4.370651 0.254140 -2.514689
  O 6.260727 -0.243068 -2.143432
  H 0.662462 0.802693 0.998393
  H 0.578061 -0.797630 0.221804
  H 0.866747 0.647761 -0.752506
  H 3.724972 1.595535 0.962369
  H 4.099635 0.065961 1.742833
  H 1.926633 0.303406 3.063582
  H 1.771699 1.946673 2.396042
  H 2.456195 -1.690091 -1.022236
  H 5.148362 -1.355864 0.004268
  H 6.865158 -0.599033 -1.460909
 20
 42.207583
  C 1.150175 0.143345 0.179462
  C 2.691790 -0.056148 0.371131
  C 3.285051 0.736807 1.474116
  C 2.389227 1.179910 2.621908
  H 2.998801 1.664106 3.361656
  C 3.049058 -1.082797 -0.445308
  C 4.464044 -0.899166 -0.736110
  C 4.925882 -0.177230 -1.770783
  H 4.306045 0.456996 -2.387286
  O 6.188737 -0.209764 -2.171873
  H 0.745987 0.792593 0.949535
  H 0.720096 -0.839924 0.183945
  H 1.051703 0.643845 -0.780729
  H 3.768302 1.620971 1.045304
  H 4.101993 0.136841 1.887304
  H 1.885403 0.320792 3.084324
  H 1.629872 1.896351 2.296917
  H 2.434488 -1.779126 -0.975445
  H 5.159130 -1.474660 -0.127077
  H 6.743337 -0.864520 -1.686604
 20
 72.003328
  C 1.061508 0.195250 0.202986
  C 2.870639 -0.069674 0.343292
  C 3.396672 0.747103 1.436360
  C 2.440179 1.144909 2.559956
  H 3.014319 1.599383 3.350661
  C 2.972118 -1.100359 -0.469344
  C 4.428724 -0.899808 -0.661444
  C 4.894752 -0.204111 -1.725158
  H 4.267949 0.431085 -2.329969
  O 6.157351 -0.154257 -2.083929
  H 0.691760 0.788590 0.995041
  H 0.755887 -0.837968 0.255193
  H 1.055556 0.652857 -0.755869
  H 3.812608 1.644392 1.026355
  H 4.173297 0.142223 1.910538
  H 1.908507 0.273601 2.954520
  H 1.706462 1.874914 2.218553
  H 2.331390 -1.774069 -0.990927
  H 5.086239 -1.521310 -0.077993
  H 6.747177 -0.674214 -1.536992
 20
 93.862103
  C 0.783316 0.195739 0.218156
  C 3.038079 -0.153817 0.369745
  C 3.514439 0.701563 1.440931
  C 2.497006 1.137039 2.497999
  H 3.027505 1.653191 3.293679
  C 2.978061 -1.131568 -0.469630
  C 4.447642 -0.923920 -0.659512
  C 4.929556 -0.142914 -1.664950
  H 4.283203 0.501005 -2.248656
  O 6.181801 -0.088199 -2.040588
  H 0.377131 0.760348 1.030900
  H 0.589367 -0.856299 0.221233
  H 0.918146 0.701606 -0.716246
  H 3.965588 1.596670 1.002918
  H 4.304509 0.141640 1.956195
  H 1.982890 0.281274 2.925062
  H 1.770261 1.824205 2.080669
  H 2.304286 -1.741353 -1.023975
  H 5.115258 -1.550347 -0.081929
  H 6.787074 -0.652843 -1.524302
 20
 98.686021
  C 0.561570 0.205938 0.240749
  C 3.164856 -0.186635 0.373390
  C 3.618406 0.693036 1.423901
  C 2.550283 1.111631 2.438316
  H 3.029683 1.661731 3.244298
  C 2.987263 -1.116590 -0.483238
  C 4.473922 -0.921385 -0.627801
  C 4.982310 -0.129735 -1.623941
  H 4.332220 0.521343 -2.199761
  O 6.223636 -0.065157 -1.996365
  H 0.126520 0.756837 1.047694
  H 0.440484 -0.855424 0.246225
  H 0.755037 0.715814 -0.678625
  H 4.055893 1.589022 0.976414
  H 4.409311 0.164409 1.966358
  H 2.050245 0.245049 2.860576
  H 1.814423 1.759400 1.976916
  H 2.290582 -1.693681 -1.041132
  H 5.125404 -1.574620 -0.063009
  H 6.837076 -0.636439 -1.493265
 20
 98.309327
  C 0.352061 0.215584 0.306889
  C 3.244737 -0.220972 0.388512
  C 3.717256 0.672614 1.426780
  C 2.617807 1.117713 2.409975
  H 3.072631 1.699496 3.213644
  C 2.980745 -1.112410 -0.490008
  C 4.478718 -0.922138 -0.632503
  C 4.974794 -0.124726 -1.642122
  H 4.311969 0.547533 -2.179698
  O 6.194440 -0.079801 -2.063499
  H -0.089901 0.740903 1.126962
  H 0.272572 -0.849415 0.290024
  H 0.569965 0.749888 -0.592083
  H 4.177545 1.555063 0.967453
  H 4.498585 0.146154 1.988311
  H 2.111399 0.256513 2.844599
  H 1.880873 1.740680 1.909730
  H 2.258482 -1.661767 -1.051807
  H 5.135201 -1.610530 -0.115186
  H 6.824367 -0.667735 -1.598050
 20
 96.254001
  C 0.238855 0.230235 0.319976
  C 3.353375 -0.183334 0.368197
  C 3.773463 0.676786 1.451556
  C 2.615183 1.084510 2.366007
  H 3.002344 1.665894 3.197682
  C 2.979237 -1.085557 -0.449545
  C 4.486350 -0.896224 -0.629815
  C 4.966393 -0.131028 -1.674891
  H 4.304582 0.558088 -2.193647
  O 6.162860 -0.131790 -2.135973
  H -0.224837 0.761179 1.123463
  H 0.206015 -0.836571 0.332102
  H 0.469386 0.751218 -0.582776
  H 4.250938 1.569833 1.041453
  H 4.522253 0.135887 2.038724
  H 2.105691 0.210294 2.759919
  H 1.895802 1.690317 1.823525
  H 2.237684 -1.636017 -0.970962
  H 5.146582 -1.605381 -0.144818
  H 6.796188 -0.736242 -1.694042
 20
 95.737142
  C 0.282215 0.220044 0.273373
  C 3.438994 -0.151068 0.395867
  C 3.795484 0.709535 1.501345
  C 2.591507 1.086376 2.367419
  H 2.930279 1.673799 3.216129
  C 3.056303 -1.057858 -0.413732
  C 4.572255 -0.866490 -0.571195
  C 5.068511 -0.107147 -1.616110
  H 4.414816 0.581141 -2.146280
  O 6.263057 -0.113412 -2.059337
  H -0.211279 0.750287 1.059200
  H 0.265037 -0.847123 0.294572
  H 0.527720 0.736875 -0.628151
  H 4.271945 1.614757 1.117097
  H 4.530392 0.179639 2.115354
  H 2.086763 0.198959 2.737853
  H 1.881236 1.676974 1.797030
  H 2.322129 -1.613145 -0.940308
  H 5.225402 -1.577928 -0.079005
  H 6.889899 -0.718579 -1.608775
 20
 95.553786
  C 0.282189 0.085013 0.210616
  C 3.451858 -0.143952 0.412396
  C 3.736089 0.773259 1.492704
  C 2.489768 1.144579 2.298310
  H 2.777064 1.785967 3.126506
  C 3.109376 -1.060500 -0.403184
  C 4.629017 -0.849772 -0.501894
  C 5.153949 -0.102360 -1.543501
  H 4.508147 0.559569 -2.116709
  O 6.370025 -0.095752 -1.941029
  H -0.245503 0.605352 0.980539
  H 0.310322 -0.981407 0.248458
  H 0.519686 0.598311 -0.695106
  H 4.194872 1.677322 1.084749
  H 4.465578 0.298464 2.156136
  H 2.006249 0.257475 2.696691
  H 1.778085 1.678092 1.675920
  H 2.401482 -1.634135 -0.945283
  H 5.274329 -1.541675 0.027650
  H 6.990082 -0.678212 -1.451625
 20
 95.502300
  C 0.292087 0.176581 0.319465
  C 3.452490 -0.155456 0.393272
  C 3.787634 0.714050 1.498565
  C 2.575169 1.106336 2.343687
  H 2.905676 1.714244 3.181019
  C 3.033979 -1.002805 -0.459732
  C 4.562411 -0.869238 -0.584449
  C 5.102922 -0.106466 -1.608367
  H 4.476116 0.603813 -2.143930
  O 6.308785 -0.141020 -2.032864
  H -0.183714 0.673397 1.137138
  H 0.285162 -0.890722 0.303004
  H 0.507212 0.727587 -0.569548
  H 4.271686 1.613489 1.109607
  H 4.512041 0.191996 2.131610
  H 2.069805 0.226359 2.730481
  H 1.869061 1.681920 1.753472
  H 2.279431 -1.503966 -1.010266
  H 5.182556 -1.616876 -0.102213
  H 6.912153 -0.767583 -1.577604
