 16
 0.000000
  C 0.981353 0.140190 0.399804
  C 2.429664 0.086772 0.269185
  H 3.036870 0.420027 1.098809
  C 3.059962 -0.369439 -0.866072
  C 4.457646 -0.412162 -0.975925
  C 5.159669 -0.853447 -2.076962
  C 4.613045 -1.355377 -3.327245
  H 3.531848 -1.373583 -3.372063
  H 6.239777 -0.827443 -2.013908
  H 0.661256 0.525936 1.359709
  H 0.550430 -0.851597 0.236987
  H 0.551969 0.744866 -0.403892
  H 2.449476 -0.703310 -1.695195
  H 5.026016 -0.068581 -0.122004
  H 5.012685 -2.357782 -3.516235
  H 5.012321 -0.761530 -4.156891
 16
 0.377548
  C 0.979973 0.135170 0.391401
  C 2.428337 0.036257 0.279578
  H 3.027384 0.174236 1.170496
  C 3.066934 -0.262731 -0.902105
  C 4.465591 -0.348140 -0.996345
  C 5.162829 -0.813931 -2.089764
  C 4.605581 -1.424647 -3.286432
  H 3.524783 -1.506984 -3.286178
  H 6.242878 -0.747429 -2.053440
  H 0.656536 0.444571 1.379123
  H 0.520131 -0.828487 0.149638
  H 0.582841 0.812105 -0.369215
  H 2.469658 -0.391300 -1.794096
  H 5.038511 -0.009297 -0.142567
  H 5.051163 -2.413306 -3.428629
  H 4.943740 -0.864031 -4.162563
 16
 1.879570
  C 0.983736 0.110933 0.367929
  C 2.431174 -0.022038 0.265081
  H 3.011214 -0.087588 1.178546
  C 3.085077 -0.137981 -0.937293
  C 4.486964 -0.253197 -1.028745
  C 5.169905 -0.784181 -2.095887
  C 4.581240 -1.494003 -3.221699
  H 3.502349 -1.588645 -3.166893
  H 6.251990 -0.711152 -2.090142
  H 0.653956 0.289432 1.385870
  H 0.499449 -0.798031 0.000349
  H 0.620370 0.894786 -0.299317
  H 2.511091 -0.066130 -1.851584
  H 5.068068 0.117141 -0.191168
  H 5.035001 -2.486561 -3.310350
  H 4.875608 -0.991565 -4.148049
 16
 4.729398
  C 0.995606 0.076245 0.335593
  C 2.441703 -0.081487 0.230921
  H 2.998757 -0.333143 1.122554
  C 3.113521 -0.008129 -0.960544
  C 4.520274 -0.144590 -1.066723
  C 5.177046 -0.772293 -2.092125
  C 4.540562 -1.558988 -3.142799
  H 3.463827 -1.622130 -3.043462
  H 6.256371 -0.727009 -2.112078
  H 0.654105 0.082505 1.367025
  H 0.487470 -0.740492 -0.189744
  H 0.667858 0.978841 -0.186450
  H 2.564623 0.233969 -1.862445
  H 5.116798 0.289854 -0.272733
  H 4.968480 -2.561377 -3.174762
  H 4.810701 -1.127190 -4.112235
 16
 8.478698
  C 1.010327 0.050103 0.295299
  C 2.453807 -0.138019 0.174978
  H 2.989122 -0.567395 1.013215
  C 3.141068 0.117014 -0.976193
  C 4.553956 -0.047136 -1.112970
  C 5.178961 -0.760099 -2.092032
  C 4.499428 -1.635779 -3.044028
  H 3.431778 -1.705988 -2.870740
  H 6.255787 -0.710943 -2.163448
  H 0.653189 -0.158885 1.297336
  H 0.479850 -0.610307 -0.398211
  H 0.726885 1.060492 -0.015926
  H 2.615692 0.530731 -1.828996
  H 5.167939 0.447898 -0.369241
  H 4.944044 -2.633298 -3.038444
  H 4.698569 -1.262304 -4.051876
 16
 12.725223
  C 1.024079 0.029409 0.265673
  C 2.462604 -0.194778 0.126469
  H 2.970614 -0.759484 0.900440
  C 3.172373 0.190897 -0.967535
  C 4.582943 0.027421 -1.158688
  C 5.172250 -0.752832 -2.100419
  C 4.456638 -1.683302 -2.973610
  H 3.388425 -1.702484 -2.789597
  H 6.247541 -0.735061 -2.195584
  H 0.649809 -0.328668 1.220267
  H 0.479293 -0.488904 -0.528824
  H 0.784254 1.085505 0.132136
  H 2.698034 0.783416 -1.751842
  H 5.219013 0.580188 -0.475858
  H 4.867438 -2.690949 -2.896122
  H 4.659113 -1.391215 -4.008669
 16
 17.217132
  C 1.049008 -0.010767 0.213967
  C 2.482816 -0.265050 0.042279
  H 2.961802 -0.966544 0.713982
  C 3.228400 0.311803 -0.927155
  C 4.629351 0.109057 -1.198654
  C 5.166374 -0.768345 -2.076697
  C 4.385996 -1.714093 -2.881370
  H 3.319868 -1.639356 -2.693869
  H 6.239554 -0.796133 -2.204059
  H 0.651241 -0.531803 1.078655
  H 0.487810 -0.328653 -0.670576
  H 0.858134 1.060055 0.297938
  H 2.778105 1.025497 -1.623397
  H 5.293925 0.755859 -0.630164
  H 4.728779 -2.737543 -2.711781
  H 4.598088 -1.536037 -3.938985
 16
 17.070096
  C 1.027384 0.004224 0.148524
  C 2.456190 -0.324327 -0.008854
  H 2.880559 -1.023907 0.701057
  C 3.297465 0.291506 -0.848359
  C 4.687162 0.103443 -1.200208
  C 5.177108 -0.812495 -2.068238
  C 4.343973 -1.740796 -2.839733
  H 3.320353 -1.774607 -2.476468
  H 6.235863 -0.811216 -2.284872
  H 0.588168 -0.527464 0.987164
  H 0.468400 -0.232625 -0.758623
  H 0.903180 1.079566 0.312856
  H 2.984646 1.137381 -1.459694
  H 5.368709 0.786142 -0.697379
  H 4.804799 -2.727925 -2.830961
  H 4.339896 -1.466480 -3.902793
 16
 23.180076
  C 1.005376 0.043240 0.148941
  C 2.447531 -0.313246 0.102939
  H 2.774346 -1.067700 0.806330
  C 3.357261 0.188101 -0.703338
  C 4.712313 0.065815 -1.171979
  C 5.164081 -0.789892 -2.136792
  C 4.322761 -1.704427 -2.890607
  H 3.277320 -1.630763 -2.609617
  H 6.222666 -0.779519 -2.369880
  H 0.504360 -0.458485 0.969335
  H 0.513341 -0.244576 -0.778158
  H 0.881241 1.121093 0.268583
  H 3.177605 1.015916 -1.427155
  H 5.429799 0.731603 -0.706919
  H 4.690654 -2.721351 -2.787058
  H 4.424174 -1.505609 -3.966432
 16
 31.741033
  C 1.002236 0.095215 0.111056
  C 2.418474 -0.361362 0.149755
  H 2.668405 -1.104516 0.897398
  C 3.395073 0.068422 -0.596728
  C 4.705027 0.054488 -1.168594
  C 5.152960 -0.767857 -2.172207
  C 4.310879 -1.710284 -2.901151
  H 3.311762 -1.795145 -2.480765
  H 6.185289 -0.677860 -2.481657
  H 0.430651 -0.370855 0.902932
  H 0.555332 -0.159695 -0.844909
  H 0.942620 1.175404 0.227461
  H 3.376343 0.904182 -1.372492
  H 5.421350 0.710211 -0.685396
  H 4.794822 -2.689172 -2.919460
  H 4.245878 -1.430412 -3.954675
 16
 37.049137
  C 1.013029 0.136134 0.056409
  C 2.408305 -0.382020 0.155101
  H 2.608002 -1.160535 0.882346
  C 3.446552 0.025225 -0.528531
  C 4.709871 0.058284 -1.155908
  C 5.125510 -0.756055 -2.177568
  C 4.277840 -1.721088 -2.870502
  H 3.283572 -1.778050 -2.439455
  H 6.149930 -0.664296 -2.510467
  H 0.378328 -0.352387 0.784323
  H 0.615246 -0.049276 -0.943941
  H 0.984185 1.208010 0.228353
  H 3.511303 0.830264 -1.333554
  H 5.443832 0.723375 -0.721880
  H 4.741389 -2.716738 -2.854732
  H 4.209787 -1.461764 -3.933290
 16
 42.457441
  C 1.019251 0.149318 0.063113
  C 2.385590 -0.449077 0.231136
  H 2.474695 -1.197667 1.015380
  C 3.454778 -0.182946 -0.427242
  C 4.616758 0.115572 -1.166353
  C 5.095665 -0.691381 -2.237272
  C 4.295492 -1.722833 -2.899270
  H 3.324987 -1.862324 -2.432713
  H 6.102247 -0.523163 -2.584278
  H 0.334307 -0.250919 0.802521
  H 0.632123 -0.074890 -0.929097
  H 1.062834 1.230567 0.174721
  H 3.707275 0.800344 -1.506106
  H 5.350337 0.753758 -0.679188
  H 4.837178 -2.670759 -2.903780
  H 4.158499 -1.475895 -3.955354
 16
 40.464325
  C 1.010617 0.086412 0.052242
  C 2.392150 -0.469394 0.259679
  H 2.474308 -1.187399 1.077082
  C 3.466505 -0.202015 -0.379021
  C 4.576683 0.172900 -1.167563
  C 5.064839 -0.671556 -2.237381
  C 4.254044 -1.688090 -2.895967
  H 3.268397 -1.795366 -2.445182
  H 6.074954 -0.523103 -2.570761
  H 0.326816 -0.307075 0.795956
  H 0.647255 -0.182263 -0.937634
  H 1.029320 1.171401 0.127782
  H 3.899547 0.929486 -1.655434
  H 5.341313 0.743585 -0.640105
  H 4.771294 -2.651491 -2.876125
  H 4.148026 -1.455619 -3.961252
 16
 38.838165
  C 1.010111 0.055346 0.012906
  C 2.397992 -0.476153 0.269210
  H 2.461762 -1.166347 1.108586
  C 3.477366 -0.207613 -0.356986
  C 4.567404 0.194694 -1.155728
  C 5.017118 -0.634430 -2.264343
  C 4.215260 -1.690091 -2.864614
  H 3.259048 -1.819417 -2.371308
  H 5.991938 -0.425161 -2.676924
  H 0.322162 -0.310782 0.759536
  H 0.669284 -0.262102 -0.967895
  H 1.017702 1.139996 0.038285
  H 4.118452 1.090237 -1.642814
  H 5.393777 0.606998 -0.566810
  H 4.765033 -2.634196 -2.845713
  H 4.061657 -1.490566 -3.929070
 16
 38.295001
  C 0.995028 0.060300 0.010793
  C 2.384034 -0.475028 0.255416
  H 2.449094 -1.174134 1.086340
  C 3.455900 -0.196204 -0.379730
  C 4.563293 0.196659 -1.159070
  C 4.990774 -0.605610 -2.296634
  C 4.224732 -1.709272 -2.852459
  H 3.289857 -1.875251 -2.326188
  H 5.925683 -0.337707 -2.761824
  H 0.312153 -0.297078 0.772283
  H 0.641580 -0.266864 -0.963991
  H 1.007093 1.147725 0.023538
  H 4.242581 1.169742 -1.584730
  H 5.411229 0.500113 -0.531408
  H 4.821322 -2.626371 -2.830299
  H 4.031714 -1.540605 -3.915718
