 21
 0.000000
  C 0.833289 0.046383 0.313713
  C 2.320661 0.058201 0.104228
  C 3.228699 -0.010619 1.323961
  C 2.572252 -0.088148 2.697875
  H 3.336645 -0.131575 3.467567
  C 2.914108 0.125298 -1.084850
  C 2.376649 0.204602 -2.490297
  C 0.875760 0.219728 -2.758284
  H 0.703078 0.280169 -3.829466
  H 3.997967 0.125901 -1.095513
  H 0.567283 -0.012880 1.363941
  H 0.381794 -0.814439 -0.172878
  H 0.381795 0.956483 -0.072949
  H 3.876644 0.871324 1.313275
  H 3.876647 -0.885763 1.214129
  H 1.951525 -0.978788 2.784699
  H 1.951529 0.787055 2.884342
  H 2.802748 -0.643098 -3.041011
  H 2.802749 1.108877 -2.942154
  H 0.400882 1.078921 -2.293582
  H 0.400875 -0.686296 -2.393185
 21
 7.083270
  C 0.849102 0.047039 0.302085
  C 2.333919 0.059816 0.075601
  C 3.254094 -0.008164 1.280430
  C 2.541674 -0.094131 2.803885
  H 3.316315 -0.136871 3.561434
  C 2.916717 0.127091 -1.116642
  C 2.373972 0.206166 -2.518023
  C 0.871892 0.220740 -2.776221
  H 0.693604 0.281197 -3.847678
  H 4.001718 0.128040 -1.133429
  H 0.598012 -0.012417 1.355717
  H 0.392238 -0.813586 -0.180246
  H 0.392239 0.956462 -0.080365
  H 3.899115 0.872404 1.268411
  H 3.899120 -0.881790 1.169430
  H 1.925590 -0.984023 2.892453
  H 1.925589 0.780138 2.992001
  H 2.798290 -0.641316 -3.070492
  H 2.798289 1.110421 -2.971647
  H 0.399368 1.079707 -2.309197
  H 0.399365 -0.685314 -2.408791
 21
 22.238656
  C 0.866211 0.046894 0.304642
  C 2.346264 0.061176 0.051493
  C 3.279310 -0.005265 1.229039
  C 2.502470 -0.099445 2.898036
  H 3.292213 -0.140926 3.633235
  C 2.918269 0.128812 -1.147143
  C 2.373455 0.207706 -2.545306
  C 0.870001 0.221577 -2.791071
  H 0.685820 0.282048 -3.862766
  H 4.005283 0.130044 -1.168953
  H 0.643321 -0.012900 1.364256
  H 0.400317 -0.813094 -0.170976
  H 0.400319 0.954929 -0.071209
  H 3.916368 0.872881 1.234212
  H 3.916367 -0.878412 1.135393
  H 1.896258 -0.989297 2.971202
  H 1.896248 0.776527 3.070846
  H 2.797169 -0.639496 -3.098846
  H 2.797170 1.111802 -3.000025
  H 0.400135 1.080407 -2.321615
  H 0.400131 -0.684613 -2.421211
 21
 38.974477
  C 0.884923 0.047649 0.291280
  C 2.362645 0.062830 0.022219
  C 3.310346 -0.002948 1.188008
  C 2.464231 -0.105214 3.000292
  H 3.270817 -0.145690 3.717693
  C 2.924330 0.130691 -1.180423
  C 2.369829 0.209386 -2.575082
  C 0.863129 0.222077 -2.799928
  H 0.665354 0.282384 -3.868698
  H 4.010709 0.132316 -1.209197
  H 0.681185 -0.012314 1.353907
  H 0.413497 -0.811519 -0.180520
  H 0.413498 0.954440 -0.080870
  H 3.943459 0.879888 1.216597
  H 3.943465 -0.883396 1.117100
  H 1.863338 -1.001595 3.054202
  H 1.863334 0.779403 3.154699
  H 2.789441 -0.637434 -3.132162
  H 2.789443 1.113500 -3.033362
  H 0.398874 1.080784 -2.324405
  H 0.398868 -0.684677 -2.424023
 21
 55.638078
  C 0.909037 0.047776 0.289001
  C 2.381520 0.064246 -0.002885
  C 3.337738 -0.000396 1.142765
  C 2.421119 -0.110716 3.097760
  H 3.240575 -0.150082 3.795452
  C 2.932559 0.132547 -1.213325
  C 2.366281 0.211014 -2.603947
  C 0.857208 0.222686 -2.810738
  H 0.647078 0.282888 -3.877659
  H 4.019337 0.134679 -1.251089
  H 0.729190 -0.012484 1.356888
  H 0.430354 -0.810987 -0.175760
  H 0.430355 0.953374 -0.076200
  H 3.962474 0.882666 1.194467
  H 3.962474 -0.883662 1.094796
  H 1.828180 -1.008682 3.131175
  H 1.828169 0.777794 3.231986
  H 2.781525 -0.635414 -3.164436
  H 2.781526 1.115120 -3.065659
  H 0.398222 1.081038 -2.330086
  H 0.398222 -0.684282 -2.429700
 21
 70.723862
  C 0.933457 0.048478 0.276594
  C 2.403010 0.065974 -0.033474
  C 3.369627 0.001964 1.100980
  C 2.377676 -0.116282 3.196410
  H 3.210359 -0.154767 3.878495
  C 2.941128 0.134348 -1.245205
  C 2.360848 0.212446 -2.629289
  C 0.849179 0.222902 -2.814545
  H 0.623945 0.282917 -3.878134
  H 4.026995 0.137028 -1.292697
  H 0.773577 -0.011935 1.347188
  H 0.448758 -0.810285 -0.182449
  H 0.448759 0.953433 -0.082925
  H 3.988013 0.888915 1.177614
  H 3.988019 -0.887980 1.077347
  H 1.790023 -1.019002 3.208358
  H 1.790017 0.779359 3.309838
  H 2.770440 -0.633801 -3.194131
  H 2.770442 1.116859 -3.095347
  H 0.396526 1.081136 -2.327342
  H 0.396518 -0.684700 -2.426976
 21
 83.649848
  C 0.959957 0.048316 0.279449
  C 2.424158 0.067249 -0.056101
  C 3.399147 0.004129 1.062594
  C 2.331539 -0.122031 3.298274
  H 3.174531 -0.159581 3.963775
  C 2.952030 0.136505 -1.283453
  C 2.355427 0.214325 -2.662623
  C 0.841493 0.223695 -2.828635
  H 0.602624 0.283554 -3.889476
  H 4.037960 0.139876 -1.343190
  H 0.824760 -0.012359 1.354691
  H 0.467729 -0.810375 -0.170687
  H 0.467730 0.952196 -0.071228
  H 4.008619 0.892002 1.161999
  H 4.008621 -0.889284 1.061485
  H 1.750716 -1.026125 3.289755
  H 1.750704 0.777283 3.391520
  H 2.759236 -0.631665 -3.231810
  H 2.759236 1.118969 -3.133025
  H 0.394725 1.081544 -2.335912
  H 0.394729 -0.684125 -2.435548
 21
 94.274383
  C 0.993032 0.049493 0.258618
  C 2.452986 0.069343 -0.093175
  C 3.433650 0.006801 1.015260
  C 2.279939 -0.126988 3.386128
  H 3.131439 -0.163915 4.040606
  C 2.960726 0.137773 -1.305914
  C 2.347427 0.215002 -2.674598
  C 0.831332 0.222945 -2.815324
  H 0.574475 0.282560 -3.871822
  H 4.044455 0.141754 -1.376448
  H 0.875458 -0.011292 1.335813
  H 0.495583 -0.809631 -0.185967
  H 0.495586 0.953179 -0.086494
  H 4.035180 0.897511 1.138869
  H 4.035188 -0.892161 1.037883
  H 1.704192 -1.034120 3.355846
  H 1.704183 0.777788 3.458091
  H 2.743916 -0.630798 -3.248977
  H 2.743919 1.120045 -3.150183
  H 0.392275 1.080654 -2.314845
  H 0.392269 -0.685626 -2.414505
 21
 101.326435
  C 1.013820 0.049328 0.261592
  C 2.474663 0.070461 -0.112904
  C 3.471073 0.008150 0.991385
  C 2.226820 -0.133140 3.495108
  H 3.118775 -0.166673 4.089408
  C 2.972797 0.140091 -1.346905
  C 2.337695 0.217039 -2.710683
  C 0.820674 0.223487 -2.824935
  H 0.544644 0.282825 -3.876525
  H 4.056894 0.144810 -1.430493
  H 0.923415 -0.011416 1.338061
  H 0.509760 -0.808835 -0.176536
  H 0.509761 0.951332 -0.077209
  H 4.047435 0.902908 1.184043
  H 4.047463 -0.902624 1.082162
  H 1.674012 -1.047264 3.401025
  H 1.673989 0.785774 3.504464
  H 2.726881 -0.628567 -3.291178
  H 2.726870 1.122560 -3.192355
  H 0.390536 1.080532 -2.317062
  H 0.390532 -0.685255 -2.416694
 21
 107.832248
  C 1.046624 0.049090 0.265805
  C 2.495692 0.071611 -0.133342
  C 3.487526 0.010756 0.945181
  C 2.179545 -0.138769 3.594918
  H 3.080062 -0.171286 4.171260
  C 2.980580 0.141687 -1.375284
  C 2.333325 0.218223 -2.731759
  C 0.814026 0.223999 -2.834079
  H 0.529483 0.283231 -3.883808
  H 4.062855 0.147027 -1.469931
  H 0.975562 -0.012119 1.350539
  H 0.536711 -0.809374 -0.163243
  H 0.536713 0.950373 -0.063944
  H 4.054420 0.903475 1.147986
  H 4.054427 -0.899103 1.046269
  H 1.632302 -1.051869 3.490083
  H 1.632302 0.780304 3.593471
  H 2.717900 -0.626850 -3.314683
  H 2.717902 1.123507 -3.215921
  H 0.387338 1.081324 -2.322737
  H 0.387336 -0.685395 -2.422425
 21
 112.818645
  C 1.069075 0.049840 0.252480
  C 2.519352 0.073328 -0.163771
  C 3.524414 0.012293 0.917916
  C 2.132705 -0.144919 3.703781
  H 3.041222 -0.176838 4.269513
  C 2.988909 0.143558 -1.408425
  C 2.323784 0.219587 -2.755884
  C 0.803740 0.224053 -2.834992
  H 0.503097 0.283007 -3.879779
  H 4.070170 0.149618 -1.515807
  H 1.010940 -0.011219 1.334543
  H 0.554414 -0.809594 -0.170888
  H 0.554416 0.951449 -0.071515
  H 4.085268 0.909056 1.138317
  H 4.085283 -0.903570 1.036033
  H 1.589861 -1.060039 3.582384
  H 1.589833 0.778064 3.686106
  H 2.700794 -0.625689 -3.344233
  H 2.700794 1.125678 -3.245407
  H 0.384425 1.080883 -2.317142
  H 0.384420 -0.685591 -2.416816
 21
 116.487889
  C 1.103473 0.049705 0.254944
  C 2.543576 0.074513 -0.184737
  C 3.548883 0.014455 0.879659
  C 2.079358 -0.150600 3.804549
  H 2.992641 -0.181885 4.359098
  C 2.997341 0.145172 -1.437026
  C 2.314941 0.220754 -2.776587
  C 0.793693 0.224160 -2.836893
  H 0.479881 0.282914 -3.878183
  H 4.077068 0.151987 -1.557818
  H 1.063635 -0.011562 1.340723
  H 0.583511 -0.809730 -0.159423
  H 0.583513 0.950299 -0.060109
  H 4.100215 0.909279 1.111307
  H 4.100234 -0.900747 1.009173
  H 1.541419 -1.064647 3.670925
  H 1.541415 0.772653 3.774604
  H 2.685100 -0.624173 -3.369206
  H 2.685101 1.126977 -3.270398
  H 0.380286 1.080759 -2.313864
  H 0.380280 -0.685835 -2.413542
 21
 119.070710
  C 1.128650 0.050067 0.248494
  C 2.567299 0.075974 -0.210652
  C 3.583771 0.016015 0.852015
  C 2.026657 -0.156611 3.910973
  H 2.945140 -0.187488 4.458284
  C 3.004623 0.146875 -1.467226
  C 2.304033 0.221867 -2.796327
  C 0.782164 0.223968 -2.833472
  H 0.452435 0.282429 -3.869537
  H 4.082476 0.154463 -1.601741
  H 1.102562 -0.011158 1.333522
  H 0.603666 -0.810495 -0.159340
  H 0.603667 0.951047 -0.059941
  H 4.128765 0.914173 1.098384
  H 4.128780 -0.904148 0.995778
  H 1.492645 -1.071766 3.762981
  H 1.492624 0.769380 3.866876
  H 2.666289 -0.622955 -3.394130
  H 2.666291 1.128566 -3.295297
  H 0.376114 1.080273 -2.304092
  H 0.376104 -0.686451 -2.403775
 21
 120.821297
  C 1.160068 0.049861 0.252149
  C 2.589456 0.077003 -0.228890
  C 3.609014 0.017824 0.819994
  C 1.970267 -0.162536 4.015973
  H 2.892083 -0.192956 4.555215
  C 3.010381 0.148276 -1.492068
  C 2.292350 0.222797 -2.812812
  C 0.770003 0.223812 -2.830690
  H 0.426966 0.282042 -3.862671
  H 4.086623 0.156623 -1.640050
  H 1.150543 -0.011430 1.338376
  H 0.630381 -0.810682 -0.147087
  H 0.630382 0.949853 -0.047747
  H 4.145361 0.914558 1.076393
  H 4.145381 -0.902054 0.973883
  H 1.440453 -1.076686 3.857169
  H 1.440432 0.763669 3.961019
  H 2.647519 -0.621797 -3.415051
  H 2.647523 1.129767 -3.316215
  H 0.370186 1.079743 -2.296257
  H 0.370177 -0.686803 -2.395932
