 23
 0.000000
  C 0.936277 0.050247 0.302597
  C 2.421642 0.065270 0.059602
  C 3.248510 -0.002732 1.323769
  H 2.612274 -0.056081 2.202139
  C 3.013601 0.132267 -1.149706
  C 2.362300 0.202585 -2.518139
  C 0.848194 0.224256 -2.690821
  H 0.629624 0.278934 -3.756567
  C 4.471947 0.138110 -1.236422
  C 5.213824 0.195576 -2.343309
  O 6.573354 0.197519 -2.354265
  H 0.727742 -0.005845 1.368520
  H 0.464885 -0.809225 -0.168127
  H 0.461619 0.952136 -0.076212
  H 3.881494 0.878576 1.421695
  H 3.890341 -0.883478 1.326917
  H 2.743097 -0.653124 -3.085397
  H 2.756688 1.102518 -3.001261
  H 0.399621 1.091514 -2.217857
  H 0.383052 -0.676734 -2.305375
  H 5.015965 0.090703 -0.303386
  H 4.834699 0.246258 -3.350322
  H 6.905557 0.151746 -1.448115
 23
 -0.012864
  C 0.946004 -0.090189 0.294923
  C 2.425015 0.049307 0.054240
  C 3.242595 0.098537 1.324647
  H 2.599858 0.287960 2.180384
  C 3.013374 0.126495 -1.154410
  C 2.360893 0.183021 -2.522479
  C 0.849119 0.300177 -2.680339
  H 0.622761 0.373740 -3.743582
  C 4.471578 0.123491 -1.241475
  C 5.216923 0.227381 -2.343174
  O 6.575507 0.180787 -2.355221
  H 0.746380 -0.203940 1.357632
  H 0.548931 -0.968587 -0.208235
  H 0.395859 0.780791 -0.052023
  H 3.982842 0.894984 1.286663
  H 3.758420 -0.846509 1.499909
  H 2.690936 -0.704723 -3.072410
  H 2.797869 1.050183 -3.027124
  H 0.467922 1.195896 -2.199505
  H 0.326662 -0.567490 -2.292961
  H 5.012028 -0.015953 -0.315163
  H 4.841694 0.359165 -3.344470
  H 6.904230 0.060650 -1.454710
 23
 0.146553
  C 0.960766 -0.205218 0.292390
  C 2.426299 0.027179 0.045354
  C 3.222627 0.188752 1.317637
  H 2.587705 0.617020 2.090764
  C 3.016825 0.120353 -1.160369
  C 2.360002 0.168434 -2.526555
  C 0.852720 0.355119 -2.660458
  H 0.611813 0.456678 -3.718022
  C 4.475524 0.098078 -1.248800
  C 5.227008 0.272215 -2.337168
  O 6.582497 0.171441 -2.355857
  H 0.787584 -0.371190 1.353314
  H 0.611869 -1.086341 -0.240929
  H 0.353173 0.643424 -0.012583
  H 4.056759 0.867367 1.166036
  H 3.596485 -0.767973 1.683985
  H 2.647139 -0.739630 -3.067086
  H 2.823843 1.010132 -3.048147
  H 0.524140 1.259912 -2.157309
  H 0.296002 -0.492408 -2.276858
  H 5.008235 -0.147831 -0.339306
  H 4.859643 0.512211 -3.321169
  H 6.904047 -0.046033 -1.471256
 23
 0.261241
  C 0.981390 -0.292550 0.290664
  C 2.431711 0.011734 0.035219
  C 3.197280 0.255577 1.309057
  H 2.598709 0.894683 1.957677
  C 3.024933 0.093663 -1.172558
  C 2.354077 0.117219 -2.532916
  C 0.860652 0.407427 -2.641406
  H 0.610401 0.544175 -3.692762
  C 4.483875 0.077411 -1.264139
  C 5.240751 0.325819 -2.333217
  O 6.594486 0.207081 -2.357933
  H 0.844949 -0.538178 1.342027
  H 0.653070 -1.145636 -0.296717
  H 0.335143 0.552758 0.063655
  H 4.131928 0.770302 1.113930
  H 3.392786 -0.672515 1.846369
  H 2.572543 -0.827215 -3.042156
  H 2.858236 0.905678 -3.096481
  H 0.606510 1.323763 -2.116047
  H 0.249963 -0.403631 -2.262400
  H 5.011296 -0.247720 -0.375929
  H 4.880514 0.650405 -3.295438
  H 6.911322 -0.087633 -1.491932
 23
 1.787986
  C 1.019404 -0.468521 0.267514
  C 2.423854 0.004416 0.024259
  C 3.151034 0.377874 1.287241
  H 2.587220 1.178577 1.770919
  C 3.031160 0.115658 -1.173200
  C 2.346966 0.139454 -2.526418
  C 0.867873 0.507334 -2.589560
  H 0.594295 0.686002 -3.628432
  C 4.487061 0.056675 -1.263147
  C 5.252211 0.298108 -2.329004
  O 6.598706 0.112979 -2.364875
  H 0.928425 -0.785873 1.304546
  H 0.783515 -1.315716 -0.371036
  H 0.274932 0.308827 0.098797
  H 4.124836 0.789075 1.046744
  H 3.230581 -0.446107 1.993785
  H 2.504600 -0.820201 -3.029390
  H 2.876073 0.895471 -3.109992
  H 0.676854 1.418836 -2.028969
  H 0.227301 -0.281740 -2.212878
  H 5.001628 -0.292583 -0.375596
  H 4.900110 0.648568 -3.285263
  H 6.905008 -0.207446 -1.506664
 23
 7.490405
  C 1.104854 -0.707602 0.248180
  C 2.412134 -0.013821 0.018997
  C 3.087729 0.526939 1.248387
  H 2.501197 1.390288 1.579854
  C 3.028536 0.187176 -1.168359
  C 2.337757 0.223924 -2.518067
  C 0.881981 0.678968 -2.532952
  H 0.581582 0.891491 -3.557740
  C 4.477123 0.058451 -1.248281
  C 5.250125 0.188295 -2.332079
  O 6.579550 -0.101671 -2.364995
  H 1.004111 -0.933336 1.306907
  H 1.077664 -1.637317 -0.315552
  H 0.237165 -0.115331 -0.038929
  H 4.031630 0.959771 0.932860
  H 3.163159 -0.168738 2.077576
  H 2.418808 -0.748984 -3.013541
  H 2.900458 0.939379 -3.119779
  H 0.760462 1.586203 -1.945764
  H 0.213667 -0.083020 -2.145594
  H 4.963315 -0.319015 -0.355043
  H 4.920209 0.536517 -3.296260
  H 6.867345 -0.400408 -1.490965
 23
 18.879956
  C 1.182367 -0.843607 0.234110
  C 2.385241 0.002175 -0.000404
  C 3.040215 0.654007 1.189573
  H 2.452358 1.535130 1.463726
  C 3.034490 0.223595 -1.165571
  C 2.331867 0.288649 -2.508667
  C 0.891728 0.786896 -2.490390
  H 0.585863 1.056951 -3.500845
  C 4.442956 -0.058098 -1.238265
  C 5.239791 0.099917 -2.296176
  O 6.564057 -0.215736 -2.316339
  H 1.051607 -0.981638 1.301770
  H 1.326438 -1.810591 -0.236792
  H 0.256872 -0.425528 -0.151533
  H 3.905801 1.130038 0.731148
  H 3.177616 0.037139 2.067843
  H 2.373506 -0.682247 -3.016832
  H 2.910526 0.992907 -3.110545
  H 0.801148 1.667196 -1.857712
  H 0.204435 0.025487 -2.131298
  H 4.903867 -0.404824 -0.318668
  H 4.932529 0.492923 -3.247544
  H 6.814789 -0.607428 -1.467818
 23
 35.770939
  C 1.301340 -1.031072 0.227180
  C 2.349085 -0.005626 0.012524
  C 2.944922 0.789076 1.131429
  H 2.380909 1.718624 1.287828
  C 3.015464 0.308171 -1.144011
  C 2.362539 0.415615 -2.503727
  C 0.916694 0.899574 -2.453017
  H 0.569284 1.142387 -3.455873
  C 4.421359 -0.022351 -1.197455
  C 5.220941 0.006561 -2.269692
  O 6.481724 -0.497855 -2.288578
  H 1.208005 -1.228635 1.291859
  H 1.580654 -1.946680 -0.290859
  H 0.313648 -0.738202 -0.138962
  H 3.741552 1.275439 0.528768
  H 3.089716 0.289023 2.079521
  H 2.391506 -0.552837 -3.018964
  H 2.950152 1.117045 -3.093929
  H 0.835495 1.791933 -1.834940
  H 0.256411 0.139409 -2.045708
  H 4.851335 -0.384414 -0.269175
  H 4.922475 0.311451 -3.256849
  H 6.712493 -0.806091 -1.411378
 23
 61.586709
  C 1.343079 -1.154842 0.241257
  C 2.326887 -0.058274 0.039243
  C 2.854662 0.838495 1.073392
  H 2.417040 1.838566 1.122436
  C 3.024831 0.298818 -1.118745
  C 2.351841 0.436775 -2.476041
  C 0.934535 0.994710 -2.396515
  H 0.587928 1.279099 -3.387783
  C 4.429277 -0.083454 -1.182532
  C 5.215557 -0.068114 -2.258829
  O 6.514579 -0.487164 -2.265028
  H 1.203566 -1.324328 1.306725
  H 1.691664 -2.072600 -0.229848
  H 0.365024 -0.919185 -0.185198
  H 3.577228 1.292674 0.175063
  H 3.007333 0.442561 2.072314
  H 2.339065 -0.528948 -2.994061
  H 2.955715 1.116892 -3.078438
  H 0.908312 1.875491 -1.758035
  H 0.239939 0.262664 -1.995350
  H 4.856476 -0.439237 -0.250689
  H 4.924241 0.278513 -3.234927
  H 6.751357 -0.799358 -1.386101
 23
 74.373810
  C 1.392901 -1.201502 0.247696
  C 2.324616 -0.052310 0.080247
  C 2.751687 0.839037 1.086179
  H 2.387975 1.859063 1.072410
  C 3.044562 0.352987 -1.099359
  C 2.358196 0.488959 -2.447964
  C 0.936040 1.031610 -2.353617
  H 0.571406 1.298702 -3.343298
  C 4.456815 -0.075214 -1.171266
  C 5.222943 -0.109407 -2.258421
  O 6.511718 -0.565035 -2.278875
  H 1.222248 -1.384109 1.307213
  H 1.792093 -2.104908 -0.214360
  H 0.426623 -0.996368 -0.214597
  H 3.529211 1.308200 -0.068354
  H 2.855170 0.489721 2.117431
  H 2.356706 -0.475790 -2.964235
  H 2.946216 1.180539 -3.054996
  H 0.909458 1.920580 -1.726909
  H 0.255274 0.296835 -1.933800
  H 4.881489 -0.426543 -0.236237
  H 4.916920 0.206077 -3.241138
  H 6.761773 -0.852473 -1.391519
 23
 57.836844
  C 1.463818 -1.239154 0.236586
  C 2.312752 -0.033061 0.118293
  C 2.630090 0.826805 1.107701
  H 2.346126 1.863105 1.023412
  C 3.062522 0.411102 -1.094070
  C 2.360541 0.539998 -2.431410
  C 0.939372 1.084577 -2.313707
  H 0.542434 1.313820 -3.300457
  C 4.481519 -0.080085 -1.174485
  C 5.231592 -0.156895 -2.265403
  O 6.515208 -0.627044 -2.290899
  H 1.281011 -1.467867 1.284389
  H 1.916364 -2.106338 -0.244782
  H 0.503446 -1.057721 -0.243850
  H 3.482209 1.272799 -0.365190
  H 2.660302 0.546420 2.156600
  H 2.338898 -0.443171 -2.910709
  H 2.938014 1.206921 -3.074730
  H 0.930517 1.997426 -1.720416
  H 0.274930 0.366729 -1.842096
  H 4.910653 -0.398422 -0.229387
  H 4.912146 0.124830 -3.254671
  H 6.777100 -0.881697 -1.403439
 23
 32.159921
  C 1.631536 -1.287874 0.187680
  C 2.375331 0.002216 0.146200
  C 2.491552 0.868656 1.162323
  H 2.241318 1.909552 1.052174
  C 3.090475 0.501362 -1.096023
  C 2.342840 0.572199 -2.413895
  C 0.938041 1.149720 -2.271545
  H 0.526833 1.381226 -3.251736
  C 4.491087 -0.054838 -1.170235
  C 5.183720 -0.276900 -2.265148
  O 6.450040 -0.779281 -2.297833
  H 1.357712 -1.540126 1.210577
  H 2.200557 -2.113711 -0.243039
  H 0.719688 -1.174425 -0.394124
  H 3.382664 1.451044 -0.572296
  H 2.424863 0.561170 2.203604
  H 2.307987 -0.419724 -2.868158
  H 2.905074 1.221541 -3.089586
  H 0.964527 2.065453 -1.685788
  H 0.264609 0.451475 -1.782375
  H 4.920607 -0.327677 -0.212800
  H 4.842755 -0.042506 -3.259783
  H 6.741970 -0.973884 -1.397004
 23
 13.356959
  C 1.812173 -1.315524 0.144114
  C 2.375886 0.066711 0.145279
  C 2.348292 0.889081 1.187563
  H 2.252795 1.955850 1.071305
  C 3.090209 0.592292 -1.085008
  C 2.331419 0.621696 -2.402261
  C 0.922030 1.185644 -2.253939
  H 0.480050 1.353153 -3.233843
  C 4.457143 -0.047670 -1.155062
  C 5.134396 -0.332799 -2.255943
  O 6.371473 -0.900896 -2.288651
  H 1.530169 -1.620600 1.149567
  H 2.511345 -2.043788 -0.267854
  H 0.920324 -1.322514 -0.479520
  H 3.363121 1.588402 -0.686469
  H 2.127387 0.566724 2.197122
  H 2.295319 -0.385437 -2.821942
  H 2.880743 1.254351 -3.102723
  H 0.949981 2.134763 -1.723575
  H 0.274433 0.508314 -1.704023
  H 4.899090 -0.272628 -0.190560
  H 4.769762 -0.158384 -3.255321
  H 6.675895 -1.061266 -1.386617
 23
 2.765687
  C 1.907843 -1.289676 0.072210
  C 2.385010 0.127471 0.140663
  C 2.234064 0.887383 1.213730
  H 2.361630 1.956548 1.191308
  C 3.115915 0.669375 -1.068089
  C 2.328229 0.626819 -2.377265
  C 0.922547 1.199074 -2.226572
  H 0.433460 1.253909 -3.196822
  C 4.452555 -0.027484 -1.135565
  C 5.090397 -0.404153 -2.232568
  O 6.308237 -1.009896 -2.261556
  H 1.610178 -1.647997 1.054858
  H 2.678597 -1.946662 -0.329597
  H 1.045759 -1.350073 -0.589773
  H 3.350230 1.709119 -0.799609
  H 1.872746 0.490603 2.149842
  H 2.283389 -0.399433 -2.745162
  H 2.861464 1.225669 -3.118583
  H 0.967274 2.202078 -1.807802
  H 0.309794 0.587231 -1.570452
  H 4.908723 -0.216683 -0.169658
  H 4.716177 -0.254610 -3.232636
  H 6.629220 -1.133139 -1.359262
 23
 -0.191664
  C 2.064131 -1.350366 0.053823
  C 2.375420 0.113562 0.128567
  C 2.032672 0.860035 1.167122
  H 2.248149 1.914503 1.209535
  C 3.133029 0.699898 -1.044195
  C 2.315342 0.646001 -2.339530
  C 0.963431 1.333882 -2.187965
  H 0.399241 1.267892 -3.115663
  C 4.466944 0.009330 -1.143467
  C 5.016756 -0.509230 -2.230831
  O 6.232794 -1.117036 -2.279490
  H 1.725485 -1.724954 1.016357
  H 2.943291 -1.910647 -0.259602
  H 1.278592 -1.531320 -0.679328
  H 3.327698 1.753500 -0.802429
  H 1.524632 0.445681 2.022544
  H 2.170488 -0.393569 -2.636783
  H 2.879108 1.147181 -3.128815
  H 1.097560 2.385149 -1.942314
  H 0.379756 0.873559 -1.394697
  H 5.009023 -0.044530 -0.204357
  H 4.554717 -0.506375 -3.204877
  H 6.635177 -1.106671 -1.401966
