 25
 0.000000
  H 1.428391 0.167029 0.470842
  C 2.508137 0.148645 0.422934
  C 3.266060 0.616932 1.584919
  C 2.408090 1.085367 2.751366
  H 3.035493 1.416480 3.572990
  C 3.068498 -0.321598 -0.746890
  C 4.450270 -0.415991 -0.983700
  C 5.092283 -0.868576 -2.112098
  C 4.604882 -1.382530 -3.394279
  C 3.120745 -1.505102 -3.702318
  C 2.912385 -2.067857 -5.106621
  H 6.175125 -0.854263 -2.076236
  H 3.931999 1.431983 1.274774
  H 3.933656 -0.184565 1.925267
  H 1.769430 0.281233 3.109960
  H 1.767867 1.912751 2.453681
  H 2.385636 -0.632496 -1.518492
  H 5.099847 -0.093217 -0.180595
  H 5.078095 -2.366437 -3.527058
  H 5.079254 -0.763609 -4.169906
  H 2.642899 -0.525354 -3.650410
  H 2.641859 -2.177219 -2.988330
  H 3.357070 -1.419407 -5.857951
  H 1.851242 -2.154875 -5.325420
  H 3.356169 -3.056171 -5.201933
 25
 0.058270
  H 1.462547 0.019249 0.557816
  C 2.539310 0.069889 0.457205
  C 3.268994 0.674826 1.569771
  C 2.383639 1.134163 2.715177
  H 2.984564 1.562653 3.510699
  C 3.083557 -0.430184 -0.704221
  C 4.467061 -0.523945 -0.950022
  C 5.101921 -0.927088 -2.099845
  C 4.608326 -1.384066 -3.399539
  C 3.122702 -1.494178 -3.701381
  C 2.898027 -2.003534 -5.125898
  H 6.186500 -0.898756 -2.058822
  H 3.863256 1.518898 1.201664
  H 4.015330 -0.038985 1.939346
  H 1.818559 0.304192 3.126285
  H 1.678764 1.889661 2.381676
  H 2.386464 -0.743958 -1.462164
  H 5.114987 -0.252791 -0.129197
  H 5.082684 -2.360257 -3.581211
  H 5.084435 -0.742573 -4.155235
  H 2.647342 -0.515032 -3.602834
  H 2.647053 -2.190604 -3.005606
  H 3.333729 -1.326777 -5.856759
  H 1.835322 -2.081625 -5.336008
  H 3.339362 -2.987283 -5.264787
 25
 0.201189
  H 1.465386 -0.064587 0.604436
  C 2.538015 0.019811 0.484460
  C 3.264626 0.677802 1.572261
  C 2.383024 1.156544 2.708541
  H 2.984553 1.613590 3.489395
  C 3.079283 -0.455345 -0.688695
  C 4.460811 -0.551021 -0.938710
  C 5.093111 -0.922563 -2.102034
  C 4.602121 -1.371136 -3.403363
  C 3.118748 -1.483600 -3.710457
  C 2.902296 -1.999479 -5.130119
  H 6.175046 -0.877988 -2.067192
  H 3.855103 1.514066 1.175560
  H 4.028483 -0.013240 1.961566
  H 1.827804 0.329441 3.146550
  H 1.669006 1.895332 2.358536
  H 2.385082 -0.744899 -1.461075
  H 5.111495 -0.307024 -0.111062
  H 5.078095 -2.344800 -3.589831
  H 5.078551 -0.725615 -4.156735
  H 2.642882 -0.503659 -3.619018
  H 2.637380 -2.175068 -3.013634
  H 3.335447 -1.321212 -5.862902
  H 1.838470 -2.087569 -5.342854
  H 3.352626 -2.980139 -5.263158
 25
 0.421780
  H 1.488112 -0.160186 0.641866
  C 2.553833 -0.037555 0.505532
  C 3.267335 0.665456 1.582893
  C 2.363582 1.180832 2.693462
  H 2.951542 1.665911 3.467806
  C 3.092132 -0.487409 -0.678141
  C 4.471981 -0.561179 -0.941463
  C 5.100701 -0.907856 -2.114273
  C 4.601571 -1.354403 -3.413715
  C 3.114593 -1.474261 -3.702645
  C 2.885095 -1.990185 -5.120590
  H 6.183137 -0.850829 -2.087732
  H 3.862054 1.488351 1.163203
  H 4.016595 -0.019445 2.004681
  H 1.803104 0.368890 3.149871
  H 1.652747 1.906126 2.307251
  H 2.391555 -0.751947 -1.455043
  H 5.124836 -0.331348 -0.107936
  H 5.082511 -2.324663 -3.608280
  H 5.064399 -0.700967 -4.167767
  H 2.637701 -0.499520 -3.606349
  H 2.651058 -2.171556 -3.006033
  H 3.305787 -1.311323 -5.854553
  H 1.821210 -2.086054 -5.322322
  H 3.341915 -2.966087 -5.260176
 25
 1.093023
  H 1.543983 -0.356840 0.739813
  C 2.594212 -0.152948 0.563870
  C 3.256674 0.697231 1.546453
  C 2.330896 1.253123 2.612482
  H 2.885549 1.854131 3.322517
  C 3.129387 -0.649544 -0.602087
  C 4.504575 -0.679036 -0.895730
  C 5.114243 -0.951979 -2.094610
  C 4.595222 -1.338305 -3.406551
  C 3.106847 -1.471843 -3.673303
  C 2.856796 -1.890008 -5.117190
  H 6.196643 -0.876193 -2.084953
  H 3.797616 1.510432 1.039289
  H 4.047860 0.109850 2.019299
  H 1.835458 0.451629 3.156423
  H 1.566532 1.878713 2.167942
  H 2.410964 -0.956826 -1.346578
  H 5.168288 -0.479784 -0.064379
  H 5.095446 -2.279840 -3.674544
  H 5.027348 -0.632384 -4.132011
  H 2.607785 -0.517950 -3.494176
  H 2.670809 -2.227718 -3.015795
  H 3.258874 -1.150665 -5.815778
  H 1.795508 -1.982458 -5.303619
  H 3.322363 -2.854872 -5.333680
 25
 1.550019
  H 1.523783 -0.198570 0.665275
  C 2.593327 -0.080778 0.535104
  C 3.258201 0.711414 1.571759
  C 2.325715 1.203052 2.666323
  H 2.885152 1.740938 3.424875
  C 3.114438 -0.572474 -0.638712
  C 4.492366 -0.660637 -0.912619
  C 5.107444 -0.936510 -2.108859
  C 4.596104 -1.305397 -3.426551
  C 3.106484 -1.489003 -3.679830
  C 2.856728 -1.961701 -5.112085
  H 6.191126 -0.872482 -2.092092
  H 3.795863 1.551275 1.112902
  H 4.057278 0.098910 2.016790
  H 1.811668 0.373311 3.143951
  H 1.577764 1.880004 2.261382
  H 2.375139 -0.795064 -1.400988
  H 5.149374 -0.506064 -0.068828
  H 5.117385 -2.236408 -3.699878
  H 5.008630 -0.584784 -4.148154
  H 2.577253 -0.546907 -3.523520
  H 2.701770 -2.240814 -2.996846
  H 3.235424 -1.241816 -5.832495
  H 1.793555 -2.084122 -5.289964
  H 3.340433 -2.917026 -5.297573
 25
 1.763815
  H 1.552678 -0.319177 0.729278
  C 2.608269 -0.129400 0.559019
  C 3.248184 0.720533 1.562984
  C 2.296194 1.234529 2.628252
  H 2.835853 1.826022 3.362704
  C 3.135452 -0.632115 -0.613006
  C 4.509874 -0.687161 -0.908003
  C 5.121706 -0.961187 -2.107391
  C 4.596775 -1.325623 -3.421504
  C 3.101729 -1.474305 -3.664820
  C 2.830279 -1.906981 -5.098337
  H 6.205652 -0.884747 -2.099751
  H 3.772601 1.549131 1.077065
  H 4.056690 0.138599 2.031687
  H 1.805929 0.415475 3.141686
  H 1.532574 1.865700 2.190634
  H 2.403992 -0.917497 -1.346760
  H 5.167610 -0.493127 -0.074803
  H 5.107952 -2.260840 -3.710556
  H 5.010469 -0.596454 -4.137745
  H 2.600025 -0.525576 -3.485190
  H 2.687477 -2.229145 -2.993693
  H 3.212205 -1.174251 -5.805902
  H 1.761654 -2.010017 -5.266324
  H 3.298071 -2.866005 -5.311907
 25
 1.850535
  H 1.553464 -0.375836 0.748832
  C 2.605216 -0.164918 0.577486
  C 3.244333 0.696509 1.571434
  C 2.291792 1.231603 2.628645
  H 2.836924 1.833497 3.351018
  C 3.133602 -0.617468 -0.609665
  C 4.502364 -0.632568 -0.917591
  C 5.111633 -0.903531 -2.117850
  C 4.585984 -1.294238 -3.425150
  C 3.094677 -1.490670 -3.653567
  C 2.823060 -1.937264 -5.086071
  H 6.191717 -0.806414 -2.121701
  H 3.762390 1.523663 1.067568
  H 4.044480 0.119590 2.051225
  H 1.800042 0.424018 3.161521
  H 1.529632 1.856443 2.178864
  H 2.403897 -0.880209 -1.356117
  H 5.160318 -0.435283 -0.086321
  H 5.108361 -2.219780 -3.687761
  H 4.979862 -0.573477 -4.162742
  H 2.563690 -0.552266 -3.472784
  H 2.709552 -2.258277 -2.971450
  H 3.173252 -1.192127 -5.800656
  H 1.757585 -2.078492 -5.243275
  H 3.321934 -2.879474 -5.303288
 25
 2.660042
  H 1.666096 -0.612964 0.877867
  C 2.675777 -0.290310 0.648173
  C 3.224858 0.737753 1.533464
  C 2.227499 1.290905 2.534936
  H 2.696257 2.045545 3.155061
  C 3.201920 -0.761134 -0.530602
  C 4.562093 -0.728223 -0.879615
  C 5.139390 -0.980631 -2.098620
  C 4.579132 -1.328510 -3.404869
  C 3.077421 -1.461199 -3.618100
  C 2.770280 -1.798248 -5.073685
  H 6.219925 -0.889842 -2.124208
  H 3.669351 1.546722 0.941204
  H 4.078587 0.300095 2.071970
  H 1.841304 0.503385 3.182596
  H 1.386386 1.753107 2.024192
  H 2.464396 -1.089581 -1.249329
  H 5.242421 -0.510462 -0.066887
  H 5.075127 -2.261895 -3.717218
  H 4.977952 -0.592354 -4.119323
  H 2.582215 -0.524375 -3.366387
  H 2.677189 -2.260342 -2.990998
  H 3.118749 -1.012131 -5.737636
  H 1.698388 -1.908019 -5.219087
  H 3.245936 -2.730924 -5.368008
 25
 4.596739
  H 1.740142 -0.787441 1.007659
  C 2.679915 -0.374558 0.660782
  C 3.149949 0.825014 1.362103
  C 2.205318 1.328903 2.440113
  H 2.598714 2.233836 2.891377
  C 3.252368 -0.972756 -0.437287
  C 4.606112 -0.907214 -0.804015
  C 5.171266 -1.119478 -2.035734
  C 4.584981 -1.338828 -3.360619
  C 3.078598 -1.441625 -3.548213
  C 2.733158 -1.613584 -5.023958
  H 6.252858 -1.051078 -2.064018
  H 3.363000 1.616027 0.632439
  H 4.132658 0.595237 1.800774
  H 2.074417 0.586413 3.222725
  H 1.224685 1.562371 2.021531
  H 2.514915 -1.336817 -1.142682
  H 5.294569 -0.715313 0.010923
  H 5.060991 -2.240355 -3.769482
  H 4.975163 -0.540416 -4.006589
  H 2.595052 -0.535066 -3.180706
  H 2.690821 -2.304765 -3.004003
  H 3.057721 -0.753011 -5.602592
  H 1.658706 -1.718849 -5.152252
  H 3.208499 -2.500718 -5.435789
 25
 6.640004
  H 1.781379 -0.789075 0.991982
  C 2.743237 -0.393719 0.683656
  C 3.167077 0.812657 1.403113
  C 2.137663 1.336020 2.387932
  H 2.511572 2.223014 2.882559
  C 3.318172 -0.987492 -0.414708
  C 4.661246 -0.932088 -0.813587
  C 5.190381 -1.080887 -2.068343
  C 4.570452 -1.287325 -3.380839
  C 3.063382 -1.429297 -3.520715
  C 2.677450 -1.631006 -4.985003
  H 6.272076 -1.037992 -2.121027
  H 3.449386 1.592452 0.685895
  H 4.103347 0.575017 1.931938
  H 1.911667 0.591547 3.149233
  H 1.211158 1.601441 1.879392
  H 2.536861 -1.277531 -1.113392
  H 5.371018 -0.793470 -0.006923
  H 5.057722 -2.169528 -3.819239
  H 4.914473 -0.462681 -4.023174
  H 2.566708 -0.528219 -3.150478
  H 2.716327 -2.292899 -2.955252
  H 2.994027 -0.786229 -5.591352
  H 1.598688 -1.729745 -5.083806
  H 3.134728 -2.530127 -5.388545
 25
 10.313144
  H 1.840404 -0.842563 1.010676
  C 2.763521 -0.385479 0.664857
  C 3.135696 0.847515 1.374651
  C 2.090002 1.324382 2.366646
  H 2.443395 2.209292 2.885819
  C 3.366365 -0.984571 -0.413561
  C 4.702899 -0.971838 -0.823823
  C 5.219505 -1.057744 -2.091322
  C 4.579560 -1.274324 -3.389493
  C 3.063487 -1.383021 -3.494106
  C 2.640354 -1.621710 -4.942659
  H 6.303103 -1.021344 -2.158046
  H 3.366857 1.636405 0.649823
  H 4.084471 0.649956 1.893183
  H 1.876175 0.558932 3.109321
  H 1.160848 1.585269 1.860321
  H 2.516807 -1.205614 -1.063617
  H 5.418195 -0.891837 -0.014486
  H 5.037363 -2.178314 -3.817550
  H 4.928245 -0.470495 -4.052092
  H 2.602027 -0.458870 -3.141517
  H 2.708941 -2.219869 -2.892584
  H 2.981430 -0.812901 -5.587365
  H 1.557827 -1.677692 -5.018543
  H 3.051382 -2.553418 -5.320006
 25
 20.225762
  H 2.016421 -0.958060 1.115598
  C 2.810398 -0.412430 0.607367
  C 2.985412 0.957518 1.128930
  C 2.005091 1.306777 2.234546
  H 2.181014 2.321070 2.576282
  C 3.518033 -1.102255 -0.335793
  C 4.831362 -1.151508 -0.785081
  C 5.314095 -1.267304 -2.059562
  C 4.612327 -1.344358 -3.351386
  C 3.091446 -1.283821 -3.380150
  C 2.574354 -1.361239 -4.813366
  H 6.395435 -1.284434 -2.157804
  H 2.895333 1.674625 0.308067
  H 4.021637 1.033362 1.484653
  H 2.120659 0.640569 3.083896
  H 0.970968 1.250253 1.881023
  H 2.581606 -1.315724 -0.889013
  H 5.563155 -1.139110 0.015937
  H 4.949419 -2.266608 -3.843359
  H 5.015991 -0.538402 -3.983200
  H 2.754503 -0.346618 -2.934025
  H 2.680243 -2.122764 -2.821904
  H 2.925491 -0.513113 -5.400956
  H 1.485078 -1.353702 -4.827455
  H 2.911856 -2.274472 -5.300085
 25
 21.429031
  H 1.937579 -0.882507 1.030407
  C 2.829481 -0.386210 0.628776
  C 3.052953 0.939162 1.235943
  C 1.961513 1.337380 2.212189
  H 2.178848 2.316734 2.631913
  C 3.518066 -1.040243 -0.336829
  C 4.827387 -1.047729 -0.812408
  C 5.288237 -1.197883 -2.090919
  C 4.578124 -1.311691 -3.372997
  C 3.053723 -1.302036 -3.399076
  C 2.537522 -1.401287 -4.834605
  H 6.369943 -1.207800 -2.203096
  H 3.141836 1.696195 0.455666
  H 4.035360 0.903767 1.732795
  H 1.891080 0.627094 3.032836
  H 0.995992 1.393422 1.719056
  H 2.598662 -1.234451 -0.930102
  H 5.572203 -1.018534 -0.022281
  H 4.941774 -2.231451 -3.855896
  H 4.959088 -0.510427 -4.024783
  H 2.688772 -0.371214 -2.960158
  H 2.669418 -2.152000 -2.830496
  H 2.882923 -0.556954 -5.431761
  H 1.449700 -1.402561 -4.849536
  H 2.880888 -2.318157 -5.311059
