19
 0
 C -3.14628258 -1.55966649 -1.19630924
 C -2.73232567 -1.86577570 0.23791474
 C -2.19185936 -3.29142742 0.33569448
 C -1.72461982 -0.90123956 0.86561984
 C -1.07540946 0.18962354 0.05288532
 O -1.41445672 -1.02506735 2.05609118
 H -3.91860054 -2.25981846 -1.53321242
 H -2.29999367 -1.64305400 -1.88680758
 H -3.56062926 -0.54954311 -1.28019913
 H -3.63598667 -1.79129858 0.85704866
 H -1.26643957 -3.40385136 -0.23971848
 H -2.92223135 -4.01395601 -0.04379182
 H -1.96870958 -3.55918187 1.37423428
 H -1.45913090 0.26092998 -0.96315180
 H 0.00000000 0.00000000 0.00000000
 H -1.25756287 1.14858122 0.54670767
 O 2.40000000 0.00000000 0.00000000
 H 2.96165789 -0.45890637 -0.64258244
 H 3.01189510 0.25197749 0.70784698
