 19
 0.000000
  C -3.134993 -1.528791 -1.209748
  C -2.725699 -1.855093 0.193982
  C -2.088849 -3.220271 0.335907
  C -1.707196 -0.877160 0.916259
  C -1.119902 0.169944 0.048563
  O -1.455772 -1.050555 2.062095
  H -3.898035 -2.249046 -1.515497
  H -2.317995 -1.635124 -1.920806
  H -3.588629 -0.544436 -1.289904
  H -3.596340 -1.760704 0.856138
  H -1.174919 -3.314818 -0.250591
  H -2.783827 -3.966829 -0.053193
  H -1.858027 -3.443258 1.374620
  H -1.518834 0.209342 -0.954692
  H -0.042386 -0.026063 0.008721
  H -1.259778 1.127771 0.553625
  O 2.316422 -0.098138 0.008965
  H 2.846451 -0.579918 -0.629005
  H 2.907623 0.171471 0.712830
 19
 -0.904403
  C -3.089933 -1.505205 -1.217118
  C -2.674325 -1.856547 0.183644
  C -2.006898 -3.201417 0.301163
  C -1.660841 -0.865224 0.919198
  C -1.081045 0.174832 0.059476
  O -1.423389 -1.045509 2.072696
  H -3.856699 -2.217632 -1.523726
  H -2.280413 -1.607267 -1.931999
  H -3.543654 -0.523311 -1.280788
  H -3.531995 -1.771682 0.861606
  H -1.101040 -3.265114 -0.299590
  H -2.687792 -3.956175 -0.093365
  H -1.763376 -3.438893 1.332510
  H -1.478661 0.227761 -0.943708
  H 0.000934 -0.034609 0.013013
  H -1.193952 1.126799 0.576564
  O 2.022528 -0.174361 0.056116
  H 2.551688 -0.637145 -0.592930
  H 2.609123 0.106383 0.754141
 19
 -0.223503
  C -3.066671 -1.499202 -1.205261
  C -2.626114 -1.841014 0.189273
  C -1.944966 -3.186343 0.289574
  C -1.595311 -0.834521 0.913393
  C -1.019220 0.196524 0.035384
  O -1.364120 -1.014251 2.065500
  H -3.844612 -2.217525 -1.490726
  H -2.261847 -1.605550 -1.942743
  H -3.525144 -0.512088 -1.270031
  H -3.469826 -1.759291 0.881737
  H -1.052950 -3.238907 -0.332587
  H -2.636916 -3.950068 -0.095744
  H -1.679721 -3.430136 1.318428
  H -1.432423 0.254300 -0.964099
  H 0.052319 -0.043279 -0.027339
  H -1.112268 1.173890 0.559118
  O 1.769949 -0.246106 0.079224
  H 2.314423 -0.731287 -0.557179
  H 2.329769 0.033419 0.793879
 19
 2.185557
  C -3.051770 -1.509654 -1.190561
  C -2.602822 -1.838130 0.214655
  C -1.892751 -3.167737 0.318194
  C -1.585387 -0.816114 0.917830
  C -1.009921 0.186037 0.024202
  O -1.379166 -0.972028 2.079895
  H -3.820752 -2.234890 -1.462250
  H -2.250207 -1.611403 -1.917739
  H -3.515229 -0.527860 -1.258504
  H -3.448738 -1.772909 0.908410
  H -1.000968 -3.203731 -0.308452
  H -2.567387 -3.940749 -0.054968
  H -1.619917 -3.401470 1.346595
  H -1.421280 0.231715 -0.975733
  H 0.109545 -0.088067 -0.033979
  H -1.071604 1.152996 0.517922
  O 1.628009 -0.261945 0.017078
  H 2.158807 -0.725952 -0.629812
  H 2.201902 0.058920 0.719830
 19
 6.674347
  C -3.050867 -1.536649 -1.189136
  C -2.581065 -1.828685 0.239343
  C -1.837871 -3.145933 0.358182
  C -1.580951 -0.776529 0.904030
  C -1.016657 0.177236 -0.007930
  O -1.382861 -0.886686 2.081788
  H -3.804753 -2.285480 -1.441951
  H -2.246710 -1.631267 -1.915091
  H -3.532269 -0.568040 -1.272026
  H -3.425605 -1.775020 0.933245
  H -0.957905 -3.169483 -0.272745
  H -2.500006 -3.940274 0.008763
  H -1.551666 -3.353563 1.380474
  H -1.408368 0.181109 -1.007096
  H 0.179008 -0.111031 -0.063254
  H -1.063783 1.175855 0.448479
  O 1.524890 -0.280820 -0.006059
  H 2.057169 -0.764303 -0.650389
  H 2.085857 0.076446 0.696832
 19
 9.593697
  C -3.059481 -1.656621 -1.134132
  C -2.570622 -1.834582 0.283608
  C -1.801146 -3.130706 0.480368
  C -1.592126 -0.727524 0.861586
  C -1.027783 0.168802 -0.109575
  O -1.399646 -0.744983 2.054407
  H -3.802275 -2.431092 -1.322085
  H -2.263186 -1.785919 -1.860629
  H -3.558451 -0.700070 -1.275847
  H -3.413040 -1.770500 0.981994
  H -0.913115 -3.169895 -0.149914
  H -2.444835 -3.955338 0.181626
  H -1.512694 -3.270818 1.522186
  H -1.405852 0.083546 -1.118501
  H 0.218778 -0.200818 -0.147167
  H -1.057810 1.182140 0.263317
  O 1.500400 -0.162777 -0.118758
  H 2.060704 -0.649153 -0.742085
  H 2.009177 0.290117 0.568973
 19
 11.658674
  C -3.066430 -1.645350 -1.137969
  C -2.568426 -1.831527 0.282138
  C -1.797124 -3.130720 0.454471
  C -1.595010 -0.732918 0.862491
  C -1.015663 0.159325 -0.090032
  O -1.414238 -0.736328 2.062903
  H -3.796759 -2.428607 -1.338422
  H -2.268916 -1.749943 -1.871193
  H -3.579364 -0.693141 -1.264882
  H -3.413778 -1.788409 0.974655
  H -0.922808 -3.163225 -0.191305
  H -2.447126 -3.957047 0.168018
  H -1.488548 -3.270040 1.489052
  H -1.351116 0.070577 -1.120313
  H 0.324424 -0.198403 -0.114289
  H -1.030745 1.178534 0.284916
  O 1.474172 -0.202846 -0.084743
  H 2.023514 -0.683885 -0.732956
  H 1.975381 0.255826 0.603032
 19
 11.166940
  C -3.067020 -1.637393 -1.130809
  C -2.577784 -1.831529 0.276694
  C -1.792157 -3.134990 0.428003
  C -1.631306 -0.732636 0.859770
  C -1.044306 0.164480 -0.069316
  O -1.476822 -0.716911 2.072485
  H -3.785885 -2.419709 -1.349968
  H -2.269880 -1.722944 -1.855017
  H -3.580390 -0.689837 -1.250967
  H -3.428181 -1.819941 0.970677
  H -0.914110 -3.145528 -0.223578
  H -2.433866 -3.962337 0.133354
  H -1.479325 -3.286329 1.463457
  H -1.326013 0.082855 -1.118224
  H 0.444060 -0.182291 -0.091614
  H -1.018019 1.179445 0.304941
  O 1.496581 -0.244963 -0.069550
  H 2.010946 -0.723628 -0.743338
  H 2.006623 0.196364 0.635722
 19
 10.991516
  C -3.075886 -1.620989 -1.158870
  C -2.596543 -1.852331 0.254034
  C -1.799888 -3.145497 0.365418
  C -1.676947 -0.757798 0.879101
  C -1.082839 0.171911 -0.005562
  O -1.551832 -0.763104 2.100220
  H -3.790276 -2.411868 -1.412085
  H -2.253421 -1.675833 -1.884104
  H -3.600438 -0.662769 -1.255861
  H -3.446603 -1.885203 0.932100
  H -0.927476 -3.120279 -0.266959
  H -2.425000 -3.966950 0.038841
  H -1.499060 -3.325402 1.385938
  H -1.314031 0.116507 -1.057973
  H 0.577714 -0.186473 -0.011417
  H -1.019265 1.169203 0.399208
  O 1.582208 -0.254020 -0.021024
  H 2.072676 -0.699155 -0.735812
  H 2.092391 0.159876 0.698633
 19
 10.914584
  C -3.110139 -1.579527 -1.188540
  C -2.612804 -1.881878 0.226415
  C -1.783518 -3.159541 0.252861
  C -1.729356 -0.802409 0.904003
  C -1.153992 0.185580 0.076470
  O -1.602005 -0.865563 2.127928
  H -3.810600 -2.361888 -1.479637
  H -2.295266 -1.581647 -1.910571
  H -3.641129 -0.629736 -1.229179
  H -3.468280 -1.987424 0.896528
  H -0.908509 -3.068651 -0.375157
  H -2.388771 -3.976307 -0.128848
  H -1.479234 -3.397965 1.265177
  H -1.341115 0.181977 -0.980246
  H 0.714094 -0.199917 0.008188
  H -1.026704 1.155347 0.532332
  O 1.696947 -0.272050 0.070566
  H 2.207583 -0.655470 -0.668388
  H 2.176173 0.125889 0.824026
 19
 12.077781
  C -3.152630 -1.584877 -1.180068
  C -2.646601 -1.883304 0.220595
  C -1.790939 -3.158459 0.236132
  C -1.780456 -0.784873 0.892167
  C -1.190976 0.193137 0.065494
  O -1.676617 -0.813957 2.125018
  H -3.835787 -2.381533 -1.474245
  H -2.339278 -1.562337 -1.902412
  H -3.704383 -0.643660 -1.209447
  H -3.498888 -2.009746 0.895377
  H -0.929728 -3.056314 -0.406212
  H -2.386839 -3.986097 -0.127399
  H -1.463033 -3.388179 1.245342
  H -1.338511 0.166014 -1.001118
  H 0.916084 -0.221808 0.022260
  H -1.031182 1.158192 0.517971
  O 1.849068 -0.298025 0.087156
  H 2.356602 -0.648750 -0.665748
  H 2.312888 0.130075 0.827125
 19
 14.667028
  C -3.211659 -1.591616 -1.181615
  C -2.684503 -1.892990 0.230348
  C -1.819354 -3.153855 0.224281
  C -1.830865 -0.786147 0.882818
  C -1.234586 0.168427 0.047481
  O -1.740265 -0.779563 2.119704
  H -3.876825 -2.402911 -1.473857
  H -2.402336 -1.542534 -1.907030
  H -3.785204 -0.667613 -1.192814
  H -3.537922 -2.031432 0.902548
  H -0.974593 -3.040355 -0.445126
  H -2.417253 -3.988633 -0.127910
  H -1.462592 -3.380451 1.226263
  H -1.373500 0.133735 -1.012670
  H 1.176753 -0.257990 0.029980
  H -1.077218 1.143645 0.483987
  O 2.081447 -0.300294 0.111478
  H 2.613625 -0.616595 -0.646092
  H 2.514426 0.187003 0.838474
 19
 16.985496
  C -3.279891 -1.608280 -1.182930
  C -2.746207 -1.907796 0.253523
  C -1.826998 -3.132016 0.209363
  C -1.901594 -0.778310 0.876297
  C -1.287480 0.161325 0.032264
  O -1.822733 -0.745602 2.115442
  H -3.916344 -2.436755 -1.482294
  H -2.465391 -1.528684 -1.894794
  H -3.875703 -0.699580 -1.188155
  H -3.596293 -2.060212 0.918749
  H -1.007074 -2.967812 -0.478390
  H -2.396421 -3.989423 -0.141526
  H -1.434443 -3.357565 1.199113
  H -1.432374 0.116529 -1.029699
  H 1.455249 -0.327640 0.029033
  H -1.125655 1.138305 0.461339
  O 2.339037 -0.335394 0.134471
  H 2.897443 -0.601186 -0.622972
  H 2.722857 0.226028 0.834452
 19
 16.763380
  C -3.377980 -1.638219 -1.164492
  C -2.856149 -1.926286 0.279400
  C -1.823773 -3.057964 0.172010
  C -2.014027 -0.773804 0.864259
  C -1.382907 0.137440 0.002509
  O -1.933953 -0.705127 2.103481
  H -3.955615 -2.500942 -1.491231
  H -2.557572 -1.497803 -1.855746
  H -4.031721 -0.768249 -1.170954
  H -3.678649 -2.143317 0.953418
  H -1.053827 -2.796657 -0.539863
  H -2.317856 -3.964795 -0.171405
  H -1.370980 -3.262735 1.140308
  H -1.514116 0.072213 -1.060118
  H 1.822562 -0.443773 0.038464
  H -1.204672 1.117861 0.416049
  O 2.704214 -0.407317 0.194854
  H 3.287658 -0.604877 -0.565770
  H 3.010017 0.294148 0.805761
