 17
 0.000000
  C 0.959132 0.052866 0.193422
  C 2.460922 0.057197 0.152830
  C 3.185557 -0.017705 1.467860
  H 2.502165 -0.068126 2.305327
  C 3.111589 0.123404 -1.015052
  H 2.561094 0.177971 -1.943011
  C 4.544695 0.130071 -1.166631
  C 5.156859 0.197474 -2.351754
  O 6.500872 0.206462 -2.545934
  H 0.589303 0.005079 1.213714
  H 0.556011 -0.805982 -0.340462
  H 0.555650 0.956745 -0.261285
  H 3.824559 0.856378 1.600332
  H 3.828941 -0.898069 1.498369
  H 5.153005 0.077489 -0.270465
  H 4.630516 0.252596 -3.292699
  H 6.951549 0.156491 -1.692209
 17
 5.850044
  C 0.968644 0.097055 0.192292
  C 2.435255 0.060990 0.157134
  C 3.182264 -0.020838 1.507055
  H 2.480646 -0.099962 2.329772
  C 3.104055 0.131520 -1.002328
  H 2.538200 0.197679 -1.925440
  C 4.538978 0.119625 -1.163871
  C 5.131934 0.190905 -2.354753
  O 6.468421 0.192139 -2.572614
  H 0.540759 0.006675 1.184261
  H 0.834564 -0.800334 -0.390576
  H 0.533523 0.959337 -0.306646
  H 3.790678 0.864458 1.659403
  H 3.838337 -0.884330 1.531449
  H 5.151147 0.054129 -0.274815
  H 4.583488 0.259080 -3.282094
  H 6.933222 0.131651 -1.726857
 17
 18.187849
  C 0.966540 0.116819 0.204268
  C 2.412543 0.074014 0.162082
  C 3.180976 -0.014682 1.498359
  H 2.474454 -0.131745 2.329723
  C 3.084350 0.149916 -0.991477
  H 2.519504 0.238578 -1.916008
  C 4.518427 0.109693 -1.154999
  C 5.116316 0.185579 -2.353809
  O 6.455054 0.166066 -2.572456
  H 0.515204 -0.030783 1.177312
  H 1.060838 -0.766215 -0.372999
  H 0.502206 0.942469 -0.334368
  H 3.758602 0.896277 1.656165
  H 3.862497 -0.864388 1.494275
  H 5.126816 0.023647 -0.269076
  H 4.567984 0.275629 -3.278933
  H 6.927591 0.086115 -1.710302
 17
 32.378078
  C 0.938958 0.141913 0.215746
  C 2.400811 0.075423 0.150566
  C 3.182974 -0.022838 1.503691
  H 2.491298 -0.160895 2.319122
  C 3.081849 0.157854 -1.007160
  H 2.523807 0.266162 -1.930215
  C 4.510066 0.105304 -1.163792
  C 5.111039 0.186468 -2.350940
  O 6.448823 0.153251 -2.561273
  H 0.484110 0.000305 1.185622
  H 1.227024 -0.759668 -0.323542
  H 0.453452 0.911871 -0.370852
  H 3.736328 0.893771 1.669269
  H 3.879038 -0.854002 1.492834
  H 5.116127 0.004447 -0.271903
  H 4.570148 0.291004 -3.276637
  H 6.904258 0.062689 -1.710251
 17
 44.140176
  C 0.926885 0.167701 0.232474
  C 2.393794 0.071612 0.143986
  C 3.168548 -0.043162 1.493766
  H 2.474204 -0.194069 2.309680
  C 3.077474 0.165939 -1.016229
  H 2.517598 0.293985 -1.936808
  C 4.507321 0.108404 -1.171921
  C 5.114604 0.196779 -2.356912
  O 6.460286 0.149181 -2.562234
  H 0.483177 0.093511 1.209188
  H 1.352376 -0.761944 -0.193105
  H 0.417347 0.834912 -0.443230
  H 3.714023 0.879177 1.667391
  H 3.872429 -0.869657 1.476005
  H 5.112368 -0.005974 -0.281443
  H 4.579792 0.313648 -3.285815
  H 6.908638 0.047969 -1.711640
 17
 52.117910
  C 0.924344 0.193970 0.245480
  C 2.393321 0.073835 0.139675
  C 3.153804 -0.061933 1.487749
  H 2.450001 -0.229886 2.306631
  C 3.079364 0.178616 -1.027962
  H 2.517244 0.320006 -1.943243
  C 4.502659 0.108545 -1.182598
  C 5.116862 0.201800 -2.364532
  O 6.469298 0.148504 -2.562117
  H 0.488321 0.193491 1.226774
  H 1.462777 -0.765338 -0.074411
  H 0.389857 0.746306 -0.509418
  H 3.697135 0.863213 1.679820
  H 3.863439 -0.886827 1.462451
  H 5.103117 -0.016335 -0.295307
  H 4.586921 0.331182 -3.297016
  H 6.908422 0.040389 -1.711532
 17
 58.061351
  C 0.919520 0.217248 0.252597
  C 2.391334 0.071890 0.137218
  C 3.149797 -0.074489 1.486747
  H 2.446684 -0.252708 2.298566
  C 3.082006 0.191027 -1.035708
  H 2.518302 0.342740 -1.945589
  C 4.499613 0.113077 -1.188076
  C 5.120848 0.210552 -2.369626
  O 6.469747 0.141724 -2.560542
  H 0.482987 0.267124 1.229950
  H 1.545470 -0.763034 0.010094
  H 0.371210 0.660711 -0.552932
  H 3.688599 0.842897 1.690669
  H 3.854937 -0.891375 1.452045
  H 5.095674 -0.023853 -0.302026
  H 4.597252 0.348349 -3.302654
  H 6.902219 0.023409 -1.707220
 17
 63.086647
  C 0.914569 0.243090 0.256957
  C 2.385426 0.061809 0.137877
  C 3.150160 -0.080773 1.486854
  H 2.452079 -0.262188 2.298534
  C 3.080769 0.195547 -1.040262
  H 2.516189 0.353895 -1.944631
  C 4.496522 0.112921 -1.191152
  C 5.122611 0.215233 -2.370907
  O 6.471953 0.137991 -2.557222
  H 0.470328 0.302226 1.228789
  H 1.605371 -0.766792 0.048798
  H 0.358218 0.617094 -0.578159
  H 3.686611 0.834775 1.690588
  H 3.860347 -0.898950 1.448074
  H 5.093754 -0.033053 -0.300787
  H 4.604341 0.359769 -3.301017
  H 6.900355 0.011794 -1.701897
 17
 67.128174
  C 0.914233 0.277024 0.261998
  C 2.381761 0.047325 0.142288
  C 3.152759 -0.087369 1.487378
  H 2.457559 -0.264651 2.303247
  C 3.081510 0.191554 -1.041912
  H 2.512760 0.355134 -1.947779
  C 4.492714 0.096718 -1.192340
  C 5.123760 0.205661 -2.370603
  O 6.477011 0.150095 -2.549260
  H 0.458323 0.320442 1.227499
  H 1.650931 -0.773116 0.065912
  H 0.352736 0.601799 -0.591932
  H 3.692418 0.830713 1.684457
  H 3.862116 -0.909438 1.447857
  H 5.089004 -0.050981 -0.302222
  H 4.607482 0.362072 -3.302831
  H 6.901774 0.025149 -1.692831
 17
 69.955313
  C 0.916763 0.317835 0.268994
  C 2.376701 0.029472 0.146579
  C 3.153999 -0.092886 1.487519
  H 2.460540 -0.266392 2.307267
  C 3.083175 0.186439 -1.043760
  H 2.513114 0.350056 -1.946535
  C 4.491807 0.089317 -1.192972
  C 5.126672 0.201744 -2.370960
  O 6.481103 0.155626 -2.543779
  H 0.445773 0.326262 1.228571
  H 1.691934 -0.798573 0.069214
  H 0.349495 0.601684 -0.595094
  H 3.693487 0.829573 1.675483
  H 3.862931 -0.914648 1.447536
  H 5.088573 -0.059213 -0.302585
  H 4.612988 0.361291 -3.304342
  H 6.902699 0.031304 -1.686519
 17
 72.183779
  C 0.919252 0.343181 0.272538
  C 2.375079 0.012204 0.153577
  C 3.153255 -0.098308 1.491875
  H 2.459840 -0.273653 2.309485
  C 3.086363 0.183872 -1.043940
  H 2.511509 0.342647 -1.946064
  C 4.493886 0.106365 -1.189916
  C 5.129973 0.215719 -2.370139
  O 6.480727 0.136914 -2.544925
  H 0.435272 0.322699 1.224570
  H 1.735573 -0.824618 0.066524
  H 0.353609 0.603788 -0.600182
  H 3.687068 0.831194 1.676744
  H 3.868245 -0.916918 1.451475
  H 5.091887 -0.042184 -0.299013
  H 4.616213 0.365264 -3.305982
  H 6.900280 0.004751 -1.689258
 17
 72.325192
  C 0.931478 0.394010 0.278591
  C 2.369123 -0.009504 0.158656
  C 3.156019 -0.104935 1.491395
  H 2.468477 -0.276406 2.314436
  C 3.087101 0.172659 -1.047335
  H 2.509156 0.329000 -1.947495
  C 4.488727 0.103179 -1.189114
  C 5.130895 0.213998 -2.369464
  O 6.481954 0.140838 -2.537123
  H 0.427561 0.322069 1.219453
  H 1.774023 -0.869496 0.058794
  H 0.361747 0.622235 -0.600714
  H 3.687110 0.826501 1.666272
  H 3.871893 -0.921791 1.453152
  H 5.085815 -0.043252 -0.297314
  H 4.619037 0.358074 -3.306507
  H 6.898716 0.011684 -1.679956
 17
 71.609585
  C 0.946796 0.449372 0.283995
  C 2.362662 -0.033847 0.164260
  C 3.156397 -0.113724 1.495773
  H 2.471949 -0.280941 2.323414
  C 3.089095 0.152051 -1.053054
  H 2.507170 0.309105 -1.950514
  C 4.483761 0.082684 -1.192171
  C 5.131318 0.203257 -2.373195
  O 6.482822 0.158824 -2.532280
  H 0.423918 0.329521 1.211115
  H 1.815364 -0.922981 0.048899
  H 0.377222 0.654256 -0.602030
  H 3.684500 0.820352 1.661763
  H 3.874233 -0.928318 1.463594
  H 5.081080 -0.055797 -0.299633
  H 4.620758 0.353826 -3.309114
  H 6.897633 0.032492 -1.674236
 17
 70.671428
  C 0.963196 0.487815 0.293700
  C 2.355103 -0.056076 0.167776
  C 3.153570 -0.121921 1.493461
  H 2.473182 -0.293083 2.322708
  C 3.091243 0.144042 -1.055368
  H 2.506983 0.296686 -1.951554
  C 4.482827 0.094949 -1.189084
  C 5.133157 0.210574 -2.372106
  O 6.481815 0.142662 -2.530674
  H 0.425099 0.318049 1.206167
  H 1.863415 -0.970611 0.034930
  H 0.394649 0.681125 -0.596115
  H 3.671898 0.817848 1.655239
  H 3.879318 -0.929802 1.461676
  H 5.080532 -0.045697 -0.296613
  H 4.622842 0.347911 -3.310978
  H 6.896615 0.014017 -1.671503
