 31
 0.000000
  C 0.904686 0.048754 0.271691
  C 2.396097 0.059154 0.087326
  C 3.238875 -0.012278 1.353362
  C 2.524787 -0.088320 2.700888
  C 3.529318 -0.152928 3.845968
  C 2.991148 0.127374 -1.121652
  C 2.350484 0.204784 -2.493535
  C 0.839679 0.217308 -2.715408
  C 0.522440 0.301430 -4.206252
  C 4.453087 0.132313 -1.209117
  C 5.192032 0.194592 -2.312945
  H 6.270484 0.194341 -2.308442
  H 0.604898 -0.009988 1.312663
  H 0.461352 -0.816528 -0.214296
  H 0.461352 0.963214 -0.113869
  H 3.884859 0.870952 1.383233
  H 3.884861 -0.893264 1.283685
  H 1.892256 -0.977996 2.744625
  H 1.892250 0.790783 2.844433
  H 4.164304 -1.032031 3.756945
  H 3.007909 -0.206732 4.799392
  H 4.164299 0.730608 3.856400
  H 2.740401 -0.643682 -3.066720
  H 2.740401 1.112350 -2.967632
  H 0.385649 1.078154 -2.226129
  H 0.385649 -0.693119 -2.326077
  H 0.933754 1.210100 -4.641509
  H -0.554756 0.310056 -4.359122
  H 0.933751 -0.552506 -4.740963
  H 4.995413 0.079765 -0.277831
  H 4.811061 0.251435 -3.320288
 31
 10.120847
  C 0.904205 0.051200 0.228334
  C 2.387260 0.062786 0.022955
  C 3.311405 -0.014396 1.390909
  C 2.528759 -0.096696 2.849321
  C 3.532399 -0.161062 3.990092
  C 2.976742 0.130666 -1.179997
  C 2.334935 0.208027 -2.550995
  C 0.823901 0.220497 -2.771919
  C 0.509629 0.304661 -4.263524
  C 4.438540 0.135586 -1.267118
  C 5.178179 0.197721 -2.368389
  H 6.256689 0.197024 -2.356036
  H 0.625520 -0.007955 1.276633
  H 0.454100 -0.813607 -0.252081
  H 0.454101 0.964563 -0.151743
  H 3.952242 0.866567 1.420835
  H 3.952242 -0.893132 1.321541
  H 1.897645 -0.984990 2.886819
  H 1.897640 0.781734 2.986512
  H 4.167402 -1.040117 3.900067
  H 3.011411 -0.214870 4.943594
  H 4.167399 0.722543 3.999526
  H 2.725611 -0.640341 -3.123695
  H 2.725610 1.115439 -3.024619
  H 0.369688 1.081210 -2.282550
  H 0.369690 -0.689804 -2.382486
  H 0.922530 1.213176 -4.697582
  H -0.567143 0.313448 -4.419236
  H 0.922530 -0.549258 -4.797030
  H 4.978653 0.082967 -0.334591
  H 4.797099 0.254544 -3.375378
 31
 32.433254
  C 0.913890 0.051913 0.215695
  C 2.376240 0.066616 -0.044908
  C 3.395668 -0.015881 1.417224
  C 2.523570 -0.103686 2.973195
  C 3.521222 -0.167627 4.106448
  C 2.961886 0.133900 -1.237300
  C 2.319084 0.211194 -2.607125
  C 0.807429 0.223356 -2.822607
  C 0.494262 0.307545 -4.314583
  C 4.425423 0.138425 -1.317435
  C 5.174987 0.200251 -2.413223
  H 6.253074 0.198370 -2.379879
  H 0.688616 -0.008106 1.279290
  H 0.446600 -0.812997 -0.248789
  H 0.446599 0.963585 -0.148539
  H 4.021658 0.862841 1.450425
  H 4.021662 -0.892759 1.351362
  H 1.896025 -0.989329 2.987298
  H 1.896013 0.774749 3.086841
  H 4.156552 -1.046884 4.017254
  H 2.996470 -0.221346 5.058378
  H 4.156545 0.716082 4.116731
  H 2.710913 -0.637168 -3.178859
  H 2.710909 1.118482 -3.079785
  H 0.354124 1.083862 -2.331433
  H 0.354123 -0.686946 -2.431353
  H 0.908715 1.215843 -4.747587
  H -0.582125 0.316455 -4.472465
  H 0.908714 -0.546276 -4.847017
  H 4.954961 0.085450 -0.378572
  H 4.799253 0.257165 -3.421854
 31
 58.640000
  C 0.916759 0.053229 0.192343
  C 2.369347 0.070325 -0.110646
  C 3.478213 -0.017774 1.450786
  C 2.510821 -0.110787 3.099025
  C 3.503889 -0.174762 4.232906
  C 2.963521 0.137647 -1.303703
  C 2.315095 0.214732 -2.669839
  C 0.801272 0.225598 -2.862338
  C 0.467819 0.309532 -4.349814
  C 4.427233 0.141938 -1.379713
  C 5.180733 0.203461 -2.470123
  H 6.257835 0.200792 -2.422818
  H 0.731211 -0.007146 1.262261
  H 0.436622 -0.812149 -0.260651
  H 0.436622 0.964075 -0.160421
  H 4.093368 0.868146 1.490648
  H 4.093369 -0.902549 1.390732
  H 1.885587 -0.997903 3.085904
  H 1.885585 0.772161 3.185786
  H 4.139631 -1.054156 4.147067
  H 2.973090 -0.228380 5.183038
  H 4.139629 0.708714 4.246537
  H 2.703594 -0.633798 -3.243739
  H 2.703594 1.122438 -3.144636
  H 0.354979 1.085540 -2.362949
  H 0.354980 -0.685060 -2.462861
  H 0.876612 1.217974 -4.787755
  H -0.610442 0.317683 -4.494241
  H 0.876611 -0.543878 -4.887172
  H 4.948190 0.088719 -0.436531
  H 4.806655 0.260390 -3.479038
 31
 86.471144
  C 0.923065 0.055179 0.157785
  C 2.360001 0.074446 -0.183667
  C 3.561898 -0.019213 1.476294
  C 2.503759 -0.117438 3.216908
  C 3.493165 -0.181170 4.346485
  C 2.954717 0.140571 -1.355516
  C 2.306177 0.217712 -2.722624
  C 0.791084 0.227687 -2.899350
  C 0.442178 0.311425 -4.383354
  C 4.416246 0.144106 -1.418129
  C 5.183014 0.205383 -2.504183
  H 6.259216 0.201743 -2.439655
  H 0.773804 -0.005538 1.233770
  H 0.431933 -0.810374 -0.283474
  H 0.431933 0.964879 -0.183298
  H 4.164361 0.871633 1.521057
  H 4.164367 -0.909440 1.420555
  H 1.883430 -1.004763 3.178470
  H 1.883428 0.768568 3.278535
  H 4.128779 -1.060551 4.262191
  H 2.959640 -0.234754 5.296066
  H 4.128770 0.702111 4.361647
  H 2.693364 -0.631047 -3.297004
  H 2.693367 1.125702 -3.197879
  H 0.350408 1.086879 -2.393852
  H 0.350404 -0.682922 -2.493712
  H 0.846669 1.220005 -4.824989
  H -0.637354 0.319004 -4.517638
  H 0.846665 -0.541706 -4.924397
  H 4.922997 0.090364 -0.465693
  H 4.816156 0.262462 -3.515746
 31
 113.274279
  C 0.914491 0.055452 0.152935
  C 2.338477 0.077273 -0.233791
  C 3.639567 -0.021784 1.521840
  C 2.497308 -0.125326 3.356683
  C 3.488191 -0.188720 4.480245
  C 2.949986 0.144389 -1.423197
  C 2.300753 0.221749 -2.794186
  C 0.784835 0.230989 -2.957881
  C 0.422577 0.314542 -4.438608
  C 4.414074 0.147539 -1.478984
  C 5.182100 0.208247 -2.554921
  H 6.257134 0.204025 -2.480093
  H 0.804120 -0.005554 1.234020
  H 0.410955 -0.811020 -0.273700
  H 0.410955 0.964419 -0.173513
  H 4.231139 0.876053 1.570048
  H 4.231141 -0.919339 1.468738
  H 1.882092 -1.014135 3.295457
  H 1.882080 0.764731 3.395835
  H 4.123666 -1.068299 4.395352
  H 2.955799 -0.242425 5.431980
  H 4.123661 0.694828 4.494838
  H 2.687020 -0.627199 -3.368633
  H 2.687021 1.129929 -3.269481
  H 0.348991 1.089704 -2.447184
  H 0.348991 -0.679724 -2.547028
  H 0.823236 1.223232 -4.883434
  H -0.657954 0.321617 -4.563969
  H 0.823232 -0.538336 -4.982833
  H 4.910409 0.093524 -0.521693
  H 4.817507 0.265343 -3.566801
 31
 135.396202
  C 0.928197 0.056181 0.139999
  C 2.321130 0.083267 -0.340010
  C 3.745641 -0.022717 1.538349
  C 2.468106 -0.127188 3.389740
  C 3.437267 -0.191592 4.531218
  C 2.964732 0.147686 -1.481607
  C 2.322049 0.225138 -2.854226
  C 0.801146 0.230532 -2.949764
  C 0.363073 0.312903 -4.409550
  C 4.426296 0.148828 -1.501858
  C 5.212341 0.208575 -2.560768
  H 6.284223 0.202625 -2.455329
  H 0.900587 -0.004916 1.222707
  H 0.399289 -0.811470 -0.256062
  H 0.399291 0.962880 -0.155936
  H 4.309286 0.889256 1.612280
  H 4.309270 -0.937173 1.509219
  H 1.868131 -1.018633 3.249862
  H 1.868135 0.774309 3.351029
  H 4.072415 -1.072644 4.461589
  H 2.888884 -0.244848 5.475048
  H 4.072388 0.691681 4.561133
  H 2.700838 -0.624374 -3.431195
  H 2.700836 1.134150 -3.331956
  H 0.392711 1.086966 -2.412796
  H 0.392710 -0.680874 -2.512553
  H 0.739466 1.222607 -4.873038
  H -0.722353 0.316975 -4.481712
  H 0.739459 -0.538873 -4.972424
  H 4.880151 0.093786 -0.526391
  H 4.854897 0.265782 -3.574652
