 26
 0.000000
  C 1.001843 0.119379 0.347920
  C 2.477088 0.129617 0.373503
  C 3.239927 0.603512 1.553045
  C 2.442758 1.088858 2.760839
  C 3.382949 1.536713 3.876116
  C 3.128325 -0.328631 -0.767674
  C 4.511108 -0.397875 -0.940480
  C 5.172020 -0.853169 -2.075665
  C 4.554691 -1.352202 -3.319166
  H 3.475032 -1.350178 -3.314138
  O 6.482012 -0.866428 -2.109893
  H 0.553069 0.486842 1.262475
  H 0.642307 -0.893915 0.162557
  H 0.642377 0.722925 -0.486882
  H 3.899515 1.417169 1.230838
  H 3.899398 -0.206954 1.883363
  H 1.805716 0.288367 3.140924
  H 1.806023 1.930023 2.481422
  H 4.018463 0.716659 4.203084
  H 2.812928 1.881897 4.735182
  H 4.018779 2.354851 3.544961
  H 2.497508 -0.655423 -1.581293
  H 5.134452 -0.068413 -0.119966
  H 4.920537 -2.362494 -3.506932
  H 4.920599 -0.752044 -4.153237
  H 6.914397 -0.541470 -1.299869
 26
 13.126522
  C 1.146036 0.079943 0.248541
  C 2.599950 0.121917 0.351062
  C 3.279180 0.605607 1.555366
  C 2.409309 1.071115 2.717486
  C 3.279227 1.537649 3.880695
  C 3.324033 -0.316289 -0.739918
  C 4.701427 -0.335688 -0.790548
  C 5.061902 -0.819684 -1.992561
  C 4.315365 -1.295944 -3.176595
  H 3.239353 -1.270195 -3.113617
  O 6.414081 -0.932798 -2.272267
  H 0.640795 0.436047 1.135704
  H 0.821097 -0.940236 0.040057
  H 0.820175 0.671997 -0.607592
  H 3.939752 1.431929 1.268694
  H 3.940519 -0.189429 1.918678
  H 1.771856 0.255579 3.062555
  H 1.771105 1.898660 2.404136
  H 3.914451 0.731258 4.240599
  H 2.657915 1.868999 4.708497
  H 3.913617 2.369932 3.583976
  H 2.720870 -0.647932 -1.564244
  H 5.383014 -0.018795 -0.005376
  H 4.638911 -2.314520 -3.386158
  H 4.639458 -0.706610 -4.033328
  H 6.986572 -0.644250 -1.551209
 26
 43.563058
  C 1.206625 0.053063 0.183609
  C 2.665787 0.120400 0.346206
  C 3.298741 0.618313 1.585560
  C 2.389456 1.073287 2.724718
  C 3.218931 1.551267 3.914157
  C 3.468726 -0.314876 -0.738267
  C 4.828650 -0.307758 -0.725654
  C 4.957592 -0.796760 -1.935579
  C 4.191956 -1.273172 -3.122181
  H 3.108363 -1.266794 -3.114572
  O 6.320112 -0.980082 -2.384179
  H 0.658775 0.401045 1.050868
  H 0.905983 -0.973804 -0.038613
  H 0.903765 0.639584 -0.687263
  H 3.962932 1.452659 1.319729
  H 3.965112 -0.167875 1.967661
  H 1.752432 0.249683 3.051669
  H 1.750025 1.893226 2.392625
  H 3.853682 0.753418 4.292913
  H 2.569233 1.874486 4.723591
  H 3.850904 2.391807 3.636544
  H 2.876285 -0.644302 -1.556406
  H 5.549830 -0.010291 0.010556
  H 4.532270 -2.295055 -3.322913
  H 4.537055 -0.678183 -3.974894
  H 6.966725 -0.716131 -1.719149
 26
 82.109109
  C 1.250818 0.038393 0.149271
  C 2.711047 0.113542 0.333233
  C 3.319176 0.618076 1.588326
  C 2.380581 1.066749 2.708225
  C 3.179426 1.552559 3.915365
  C 3.538068 -0.317596 -0.742898
  C 4.911508 -0.285069 -0.670151
  C 4.859894 -0.773156 -1.877079
  C 4.119104 -1.250967 -3.069091
  H 3.028831 -1.246944 -3.072188
  O 6.284473 -1.008856 -2.455624
  H 0.691933 0.384204 1.010574
  H 0.955717 -0.989992 -0.075548
  H 0.954440 0.624827 -0.724477
  H 3.982871 1.455750 1.335805
  H 3.984513 -0.161147 1.983859
  H 1.743370 0.238161 3.021016
  H 1.741782 1.880478 2.361031
  H 3.812038 0.760867 4.309048
  H 2.509095 1.870693 4.709636
  H 3.810020 2.398103 3.651652
  H 2.922554 -0.633251 -1.529107
  H 5.653030 0.000152 0.037787
  H 4.471749 -2.283694 -3.267669
  H 4.479176 -0.648586 -3.927562
  H 6.955033 -0.759003 -1.828879
 26
 117.767763
  C 1.244964 0.037852 0.147561
  C 2.705375 0.112626 0.330255
  C 3.313160 0.613853 1.578005
  C 2.381764 1.061232 2.697174
  C 3.184374 1.545683 3.900198
  C 3.532105 -0.319028 -0.750449
  C 4.936198 -0.264717 -0.633483
  C 4.754555 -0.751623 -1.828057
  C 4.103262 -1.247645 -3.058884
  H 3.013337 -1.256059 -3.101183
  O 6.342748 -1.025494 -2.489602
  H 0.690420 0.383831 1.011207
  H 0.946012 -0.986976 -0.074263
  H 0.943967 0.624550 -0.720723
  H 3.974413 1.448135 1.327031
  H 3.977582 -0.160688 1.971914
  H 1.745398 0.232770 3.012334
  H 1.742343 1.875273 2.353483
  H 3.818063 0.753981 4.292178
  H 2.517059 1.863482 4.696195
  H 3.814109 2.391299 3.635229
  H 2.871944 -0.628018 -1.526785
  H 5.683905 0.019156 0.068515
  H 4.475720 -2.253763 -3.237774
  H 4.488623 -0.658345 -3.888436
  H 7.007373 -0.770054 -1.844584
 26
 133.985400
  C 1.128204 0.138933 0.197498
  C 2.604992 0.138640 0.333404
  C 3.278637 0.605520 1.574152
  C 2.391211 1.077585 2.719655
  C 3.240803 1.519144 3.907469
  C 3.347633 -0.298262 -0.752281
  C 4.821494 -0.235685 -0.698136
  C 4.572859 -0.767695 -1.831721
  C 4.191109 -1.268866 -3.118460
  H 3.130639 -1.278977 -3.338748
  O 6.678635 -1.212579 -2.477310
  H 0.634684 0.502781 1.089373
  H 0.766854 -0.868140 -0.013977
  H 0.817086 0.760804 -0.642394
  H 3.960241 1.423202 1.311356
  H 3.919933 -0.204809 1.941393
  H 1.731568 0.270669 3.043062
  H 1.774869 1.919363 2.400092
  H 3.853541 0.699601 4.276176
  H 2.604885 1.853597 4.723246
  H 3.895921 2.343631 3.635419
  H 2.659987 -0.580193 -1.540087
  H 5.548986 0.069338 0.013549
  H 4.584706 -2.282638 -3.223934
  H 4.708685 -0.673718 -3.874592
  H 7.322466 -1.013691 -1.795352
 26
 134.179913
  C 0.998675 0.160211 0.296933
  C 2.484505 0.152197 0.348158
  C 3.223637 0.611626 1.548302
  C 2.403153 1.074265 2.741287
  C 3.309811 1.507528 3.885099
  C 3.145720 -0.280929 -0.766189
  C 4.693041 -0.184540 -0.782021
  C 4.363739 -0.757420 -1.850640
  C 4.276089 -1.277119 -3.175960
  H 3.270677 -1.331958 -3.589494
  O 7.061467 -1.314222 -2.446427
  H 0.563220 0.520720 1.221013
  H 0.618772 -0.841808 0.106025
  H 0.644001 0.792865 -0.514311
  H 3.887910 1.435035 1.259273
  H 3.882346 -0.199844 1.882325
  H 1.754424 0.268531 3.092347
  H 1.762474 1.913885 2.462118
  H 3.942239 0.685850 4.216625
  H 2.716013 1.834902 4.733183
  H 3.948927 2.336016 3.585567
  H 2.437579 -0.546641 -1.551693
  H 5.388067 0.163299 -0.060526
  H 4.736451 -2.274561 -3.191186
  H 4.915452 -0.652277 -3.813537
  H 7.725708 -1.134825 -1.779355
 26
 135.999782
  C 0.981992 0.149770 0.306620
  C 2.467631 0.153344 0.353091
  C 3.203947 0.619896 1.553397
  C 2.378479 1.079006 2.744437
  C 3.285381 1.519833 3.887261
  C 3.131423 -0.280002 -0.761097
  C 4.697136 -0.174120 -0.754930
  C 4.312686 -0.743207 -1.820662
  C 4.219461 -1.251592 -3.145771
  H 3.214861 -1.301324 -3.552345
  O 7.362226 -1.384023 -2.567681
  H 0.547689 0.507663 1.230198
  H 0.609452 -0.853893 0.120483
  H 0.622149 0.778564 -0.502657
  H 3.861671 1.447360 1.265360
  H 3.865981 -0.186727 1.889988
  H 1.737966 0.268479 3.099214
  H 1.736882 1.916975 2.463586
  H 3.923066 0.702264 4.219347
  H 2.691489 1.845759 4.736146
  H 3.920589 2.350567 3.585176
  H 2.423570 -0.548025 -1.550516
  H 5.376219 0.182879 -0.028251
  H 4.672694 -2.248580 -3.170782
  H 4.855502 -0.627856 -3.781339
  H 8.071501 -1.227370 -1.953375
 26
 137.736024
  C 0.951453 0.138555 0.320253
  C 2.441248 0.144939 0.360606
  C 3.180248 0.618912 1.558174
  C 2.354819 1.086525 2.753923
  C 3.269672 1.541064 3.894128
  C 3.097266 -0.287887 -0.755065
  C 4.684992 -0.179896 -0.735749
  C 4.254574 -0.731318 -1.789953
  C 4.185811 -1.222149 -3.123973
  H 3.189809 -1.269237 -3.543707
  O 7.642607 -1.445224 -2.701517
  H 0.519866 0.500693 1.245943
  H 0.575411 -0.867415 0.139572
  H 0.587152 0.768063 -0.493078
  H 3.832521 1.441008 1.262697
  H 3.842402 -0.184329 1.897675
  H 1.716553 0.274636 3.117719
  H 1.712555 1.920757 2.470275
  H 3.912090 0.730089 4.231473
  H 2.678541 1.873708 4.745204
  H 3.901209 2.371754 3.580926
  H 2.384427 -0.551043 -1.533912
  H 5.359886 0.183198 0.000674
  H 4.638608 -2.217026 -3.155624
  H 4.827422 -0.591740 -3.742114
  H 8.401491 -1.305464 -2.118658
 26
 140.496196
  C 0.931989 0.126107 0.322662
  C 2.420676 0.155174 0.358704
  C 3.159973 0.632049 1.561729
  C 2.336571 1.091352 2.759476
  C 3.250123 1.545818 3.893272
  C 3.078896 -0.280203 -0.752548
  C 4.698344 -0.167888 -0.713430
  C 4.214276 -0.712100 -1.743813
  C 4.144517 -1.199763 -3.086156
  H 3.143125 -1.254027 -3.499944
  O 7.855466 -1.497426 -2.801066
  H 0.498500 0.480800 1.247825
  H 0.568590 -0.883928 0.142552
  H 0.557566 0.750335 -0.486916
  H 3.811087 1.462827 1.264567
  H 3.828469 -0.169087 1.899673
  H 1.705699 0.277248 3.121511
  H 1.689021 1.925214 2.480934
  H 3.898544 0.738440 4.226542
  H 2.661706 1.873430 4.746273
  H 3.874649 2.379060 3.578445
  H 2.357820 -0.553796 -1.530889
  H 5.373116 0.204773 0.011943
  H 4.603975 -2.189841 -3.125911
  H 4.775900 -0.562431 -3.707114
  H 8.635515 -1.366268 -2.240822
 26
 144.223878
  C 0.922135 0.116663 0.322244
  C 2.410445 0.158238 0.357492
  C 3.144694 0.638699 1.560308
  C 2.315936 1.094755 2.756690
  C 3.225169 1.551099 3.895789
  C 3.071920 -0.277297 -0.750644
  C 4.724173 -0.153934 -0.696567
  C 4.182574 -0.694671 -1.697797
  C 4.097404 -1.180103 -3.040911
  H 3.092238 -1.238538 -3.438511
  O 8.014634 -1.529612 -2.890976
  H 0.485846 0.468675 1.248875
  H 0.567790 -0.897995 0.143335
  H 0.540615 0.737539 -0.488325
  H 3.791174 1.470463 1.264858
  H 3.815415 -0.158294 1.898435
  H 1.685766 0.277728 3.116322
  H 1.666902 1.926798 2.476532
  H 3.874319 0.744264 4.230338
  H 2.632009 1.876378 4.747789
  H 3.849648 2.386846 3.584706
  H 2.353333 -0.562282 -1.526179
  H 5.409138 0.226754 0.018243
  H 4.560843 -2.167304 -3.089941
  H 4.715405 -0.538423 -3.669402
  H 8.810978 -1.400750 -2.351809
 26
 146.005539
  C 0.879337 0.119911 0.339180
  C 2.367493 0.155303 0.359997
  C 3.116567 0.637660 1.553339
  C 2.305183 1.093749 2.761297
  C 3.229085 1.552859 3.886024
  C 3.017515 -0.279955 -0.756184
  C 4.717720 -0.142340 -0.681179
  C 4.134979 -0.678195 -1.666057
  C 4.071360 -1.170335 -3.016090
  H 3.068552 -1.237257 -3.422643
  O 8.226616 -1.540244 -2.943991
  H 0.453482 0.474470 1.269169
  H 0.521424 -0.894432 0.165111
  H 0.490612 0.740140 -0.468568
  H 3.761137 1.469505 1.248511
  H 3.794520 -0.160095 1.879770
  H 1.683229 0.276403 3.132582
  H 1.650216 1.923619 2.489293
  H 3.883378 0.746852 4.210871
  H 2.647418 1.877036 4.745419
  H 3.847713 2.389034 3.566981
  H 2.287094 -0.559215 -1.528583
  H 5.393499 0.242722 0.038777
  H 4.542343 -2.154181 -3.058412
  H 4.690574 -0.526561 -3.640823
  H 9.016375 -1.407346 -2.414371
 26
 147.151712
  C 0.831069 0.131533 0.355797
  C 2.318658 0.166027 0.352842
  C 3.086358 0.640633 1.537672
  C 2.297535 1.090080 2.763283
  C 3.242042 1.536937 3.875911
  C 2.947106 -0.270389 -0.773281
  C 4.706671 -0.106388 -0.680421
  C 4.082668 -0.653714 -1.638784
  C 4.043541 -1.177859 -2.984830
  H 3.044777 -1.268009 -3.395874
  O 8.434162 -1.538573 -2.968317
  H 0.420225 0.481740 1.293454
  H 0.471374 -0.882484 0.182294
  H 0.428883 0.753924 -0.443463
  H 3.729884 1.472200 1.227002
  H 3.770126 -0.161352 1.844342
  H 1.680236 0.271418 3.139596
  H 1.640940 1.924382 2.509140
  H 3.898372 0.725729 4.182529
  H 2.675763 1.855502 4.747527
  H 3.858093 2.373805 3.554515
  H 2.201724 -0.554920 -1.532883
  H 5.369106 0.300166 0.039050
  H 4.528463 -2.154838 -3.000769
  H 4.658258 -0.540324 -3.618729
  H 9.218008 -1.388350 -2.436484
 26
 146.240814
  C 0.759624 0.145567 0.387077
  C 2.245737 0.181794 0.336947
  C 3.048643 0.643008 1.502162
  C 2.302740 1.072501 2.759398
  C 3.282375 1.507269 3.843426
  C 2.830317 -0.247017 -0.811912
  C 4.673554 -0.018723 -0.714003
  C 4.017304 -0.616649 -1.610238
  C 4.025810 -1.193900 -2.943548
  H 3.037460 -1.340036 -3.359698
  O 8.665453 -1.527542 -2.930490
  H 0.377235 0.484874 1.341192
  H 0.396322 -0.867112 0.211680
  H 0.332228 0.774333 -0.393241
  H 3.680004 1.480526 1.180914
  H 3.745336 -0.161819 1.771018
  H 1.703075 0.246661 3.145517
  H 1.635039 1.907297 2.538921
  H 3.951493 0.693992 4.115896
  H 2.745055 1.811393 4.737964
  H 3.884186 2.351098 3.513269
  H 2.068586 -0.513588 -1.560632
  H 5.294761 0.315263 0.074402
  H 4.550253 -2.150790 -2.912491
  H 4.621987 -0.554765 -3.595381
  H 9.438789 -1.345845 -2.389599
 26
 130.987400
  C 0.761217 0.302283 0.404342
  C 2.243201 0.312969 0.377979
  C 3.044649 0.700816 1.568203
  C 2.288731 1.023784 2.852663
  C 3.257940 1.416825 3.956506
  C 2.838834 -0.074500 -0.795883
  C 4.332131 0.152920 -0.907891
  C 4.178850 -0.621897 -1.885473
  C 4.152810 -1.459337 -3.020585
  H 3.161869 -1.814579 -3.290669
  O 8.732967 -1.551676 -2.948715
  H 0.367101 0.593325 1.363565
  H 0.391761 -0.690070 0.165167
  H 0.359681 0.971035 -0.345869
  H 3.646186 1.584246 1.319302
  H 3.753504 -0.104662 1.787613
  H 1.718803 0.156280 3.182381
  H 1.595693 1.847730 2.690786
  H 3.956544 0.612741 4.171873
  H 2.717143 1.640293 4.869045
  H 3.827327 2.299759 3.681146
  H 2.151077 -0.278187 -1.599379
  H 4.930430 0.614655 -0.162795
  H 4.788957 -2.325798 -2.828873
  H 4.582908 -0.916551 -3.869439
  H 9.533051 -1.314612 -2.496447
