 19
 0.000000
  C 0.963128 0.190289 0.526002
  C 2.408618 0.111102 0.328848
  H 3.061255 0.433460 1.130927
  C 2.969499 -0.357647 -0.838246
  C 4.360563 -0.424662 -1.006007
  C 5.072634 -0.863238 -2.100073
  C 4.660322 -1.385383 -3.402451
  C 3.194953 -1.531721 -3.767501
  H 3.116085 -1.935219 -4.774358
  H 6.151858 -0.821988 -1.997630
  H 0.694415 0.582780 1.502735
  H 0.510219 -0.796491 0.395527
  H 0.510169 0.812435 -0.250972
  H 2.310273 -0.674916 -1.628056
  H 4.948901 -0.085854 -0.161805
  H 5.161685 -2.358392 -3.513795
  H 5.161715 -0.758808 -4.154988
  H 2.687582 -0.570477 -3.753708
  H 2.687626 -2.217442 -3.093682
 19
 8.637820
  C 0.920991 0.202853 0.557303
  C 2.362666 0.112986 0.333559
  H 3.031298 0.430286 1.123480
  C 2.891327 -0.354608 -0.831031
  C 4.438405 -0.434886 -1.031601
  C 5.125108 -0.873058 -2.124659
  C 4.690139 -1.393072 -3.421647
  C 3.219414 -1.528806 -3.760013
  H 3.119371 -1.931534 -4.764877
  H 6.205180 -0.837104 -2.035402
  H 0.674867 0.596629 1.537650
  H 0.458021 -0.779610 0.434368
  H 0.458031 0.827355 -0.211066
  H 2.228599 -0.669667 -1.615607
  H 5.025737 -0.097806 -0.191515
  H 5.184053 -2.368828 -3.542533
  H 5.184045 -0.771055 -4.183079
  H 2.719511 -0.563593 -3.736890
  H 2.719651 -2.210979 -3.076660
 19
 26.712612
  C 0.893690 0.220608 0.601559
  C 2.320293 0.111292 0.329424
  H 3.012605 0.419299 1.097235
  C 2.789290 -0.357462 -0.838924
  C 4.495320 -0.443049 -1.052190
  C 5.164823 -0.881969 -2.147174
  C 4.723950 -1.401229 -3.442051
  C 3.250180 -1.530593 -3.763985
  H 3.134260 -1.932703 -4.766961
  H 6.244910 -0.846700 -2.059649
  H 0.693202 0.616760 1.588890
  H 0.412789 -0.752951 0.494339
  H 0.413006 0.850243 -0.148865
  H 2.152959 -0.677338 -1.636238
  H 5.032576 -0.096062 -0.187021
  H 5.215804 -2.376332 -3.572447
  H 5.215649 -0.786302 -4.210071
  H 2.756215 -0.561989 -3.732414
  H 2.756606 -2.209318 -3.072041
 19
 47.149296
  C 0.845706 0.240740 0.651692
  C 2.283139 0.108343 0.322393
  H 3.005104 0.408458 1.071655
  C 2.696884 -0.361585 -0.849736
  C 4.561835 -0.452382 -1.075723
  C 5.215879 -0.891163 -2.170514
  C 4.758815 -1.412780 -3.470939
  C 3.284596 -1.530512 -3.763299
  H 3.140540 -1.931921 -4.764225
  H 6.304492 -0.857187 -2.086411
  H 0.690780 0.640589 1.649268
  H 0.344271 -0.727147 0.562958
  H 0.344916 0.879802 -0.080986
  H 2.089457 -0.687686 -1.663437
  H 5.041530 -0.096469 -0.188050
  H 5.245847 -2.391279 -3.613524
  H 5.245497 -0.803955 -4.250275
  H 2.801624 -0.557223 -3.714924
  H 2.802021 -2.200891 -3.055636
 19
 67.546259
  C 0.808730 0.255352 0.688065
  C 2.223080 0.113749 0.336062
  H 2.954217 0.407974 1.071148
  C 2.613509 -0.362377 -0.851889
  C 4.634296 -0.466923 -1.111924
  C 5.268318 -0.904661 -2.204315
  C 4.795258 -1.419231 -3.487086
  C 3.312487 -1.525961 -3.751614
  H 3.145688 -1.925667 -4.748068
  H 6.352248 -0.876075 -2.133833
  H 0.679093 0.654652 1.684695
  H 0.301545 -0.705721 0.609959
  H 0.302404 0.897225 -0.032132
  H 2.007372 -0.688748 -1.666755
  H 5.107501 -0.108676 -0.218221
  H 5.273342 -2.398830 -3.636694
  H 5.272853 -0.814384 -4.272339
  H 2.837538 -0.548214 -3.692849
  H 2.838232 -2.192343 -3.033382
 19
 75.861111
  C 0.756825 0.291391 0.774079
  C 2.195490 0.096214 0.333809
  H 2.928583 0.371869 1.078658
  C 2.512406 -0.349526 -0.823644
  C 4.687046 -0.461261 -1.133804
  C 5.232121 -0.897325 -2.205704
  C 4.852132 -1.443415 -3.541255
  C 3.353454 -1.554545 -3.812853
  H 3.212836 -1.963582 -4.813779
  H 6.333203 -0.865531 -2.120352
  H 0.732709 0.679367 1.784641
  H 0.228848 -0.661157 0.730485
  H 0.255986 0.986307 0.100118
  H 2.066266 -0.694457 -1.717514
  H 5.001890 -0.074944 -0.199294
  H 5.322462 -2.435567 -3.642834
  H 5.321684 -0.807314 -4.310923
  H 2.878954 -0.576657 -3.780781
  H 2.879651 -2.230101 -3.103622
 19
 84.036143
  C 0.712713 0.308659 0.819092
  C 2.141109 0.101520 0.345654
  H 2.889808 0.372567 1.077802
  C 2.430177 -0.345202 -0.815826
  C 4.760967 -0.469820 -1.156389
  C 5.288709 -0.910474 -2.237623
  C 4.887018 -1.455853 -3.570357
  C 3.386402 -1.554125 -3.811849
  H 3.219981 -1.961060 -4.806792
  H 6.390962 -0.883031 -2.163666
  H 0.716743 0.696974 1.831242
  H 0.178900 -0.635090 0.789038
  H 0.205462 1.005606 0.160781
  H 2.002011 -0.695292 -1.725122
  H 5.051656 -0.076075 -0.204379
  H 5.342319 -2.441667 -3.678059
  H 5.341824 -0.829596 -4.339335
  H 2.923397 -0.573298 -3.769234
  H 2.923604 -2.223035 -3.093415
 19
 90.209858
  C 0.670964 0.328018 0.869455
  C 2.085614 0.108646 0.359571
  H 2.850665 0.381187 1.072635
  C 2.344972 -0.343653 -0.803404
  C 4.831133 -0.481928 -1.179050
  C 5.342716 -0.923392 -2.262927
  C 4.925588 -1.465803 -3.594593
  C 3.416868 -1.553687 -3.817339
  H 3.230888 -1.959150 -4.811179
  H 6.446645 -0.898105 -2.198045
  H 0.705925 0.721691 1.878329
  H 0.129930 -0.614713 0.859944
  H 0.150964 1.027177 0.219624
  H 1.938410 -0.696151 -1.712599
  H 5.090234 -0.088896 -0.228020
  H 5.374675 -2.459432 -3.707869
  H 5.376951 -0.836843 -4.370974
  H 2.962162 -0.567570 -3.766252
  H 2.959088 -2.220140 -3.090287
 19
 94.887249
  C 0.629922 0.345242 0.913983
  C 2.030663 0.113541 0.367895
  H 2.813260 0.382789 1.064431
  C 2.261261 -0.341459 -0.797013
  C 4.903274 -0.493063 -1.204359
  C 5.399186 -0.936673 -2.293231
  C 4.959836 -1.475646 -3.618392
  C 3.448699 -1.549517 -3.809480
  H 3.235387 -1.952349 -4.797665
  H 6.505353 -0.915868 -2.240853
  H 0.694518 0.740468 1.920981
  H 0.082904 -0.591744 0.920705
  H 0.100710 1.046619 0.277488
  H 1.873206 -0.699133 -1.716844
  H 5.132053 -0.095219 -0.240691
  H 5.396945 -2.470460 -3.738937
  H 5.400311 -0.850785 -4.399886
  H 3.006432 -0.559885 -3.746622
  H 3.002241 -2.209732 -3.072211
 19
 98.260244
  C 0.588711 0.363627 0.960725
  C 1.974244 0.119561 0.379190
  H 2.773033 0.385901 1.057845
  C 2.177861 -0.339233 -0.787823
  C 4.975432 -0.504270 -1.228522
  C 5.456984 -0.948793 -2.320217
  C 4.996534 -1.484762 -3.641214
  C 3.479355 -1.545895 -3.804009
  H 3.241036 -1.946403 -4.787892
  H 6.564045 -0.932226 -2.280115
  H 0.682235 0.760919 1.964487
  H 0.035288 -0.570098 0.984313
  H 0.049330 1.068317 0.335367
  H 1.810209 -0.699429 -1.709893
  H 5.171369 -0.106828 -0.264379
  H 5.424044 -2.483732 -3.768604
  H 5.428701 -0.861123 -4.429414
  H 3.047598 -0.551084 -3.730320
  H 3.042048 -2.202240 -3.055859
 19
 100.674023
  C 0.546958 0.380509 1.003714
  C 1.917156 0.125134 0.389504
  H 2.731869 0.386593 1.052061
  C 2.096937 -0.335707 -0.779214
  C 5.049622 -0.515460 -1.255325
  C 5.516979 -0.961603 -2.350967
  C 5.030000 -1.493372 -3.662619
  C 3.510833 -1.539307 -3.789233
  H 3.243455 -1.936781 -4.765955
  H 6.624821 -0.951382 -2.326994
  H 0.666472 0.777859 2.004750
  H -0.012151 -0.548520 1.041026
  H -0.000573 1.088508 0.390546
  H 1.742350 -0.699520 -1.708404
  H 5.220787 -0.115452 -0.283755
  H 5.445130 -2.495153 -3.797927
  H 5.450402 -0.873184 -4.458074
  H 3.092280 -0.540786 -3.703425
  H 3.086322 -2.189607 -3.029951
 19
 102.346932
  C 0.504339 0.397997 1.048001
  C 1.858679 0.131849 0.402715
  H 2.688045 0.388873 1.048962
  C 2.016554 -0.331465 -0.767763
  C 5.124077 -0.526289 -1.280549
  C 5.578138 -0.973583 -2.379327
  C 5.064705 -1.501589 -3.683291
  C 3.541703 -1.533029 -3.775773
  H 3.246914 -1.927617 -4.745983
  H 6.686016 -0.969763 -2.371653
  H 0.648704 0.795548 2.045593
  H -0.060179 -0.527419 1.098992
  H -0.051391 1.109528 0.445926
  H 1.675388 -0.696890 -1.698025
  H 5.271151 -0.126996 -0.309440
  H 5.468351 -2.507069 -3.826096
  H 5.474379 -0.883778 -4.486232
  H 3.135242 -0.529701 -3.678655
  H 3.128668 -2.178767 -3.005172
 19
 103.448784
  C 0.461512 0.414825 1.090510
  C 1.799879 0.138606 0.416526
  H 2.643439 0.390198 1.047588
  C 1.937534 -0.326042 -0.755066
  C 5.199474 -0.536865 -1.306393
  C 5.639787 -0.985711 -2.409172
  C 5.096987 -1.509187 -3.702453
  C 3.573120 -1.525028 -3.756895
  H 3.249162 -1.916113 -4.718626
  H 6.747303 -0.989508 -2.420231
  H 0.628756 0.811518 2.084790
  H -0.108091 -0.506480 1.153394
  H -0.101060 1.130076 0.499664
  H 1.605728 -0.694029 -1.690121
  H 5.327192 -0.136186 -0.330762
  H 5.487774 -2.518027 -3.853215
  H 5.494074 -0.894464 -4.513309
  H 3.180310 -0.518042 -3.648103
  H 3.173700 -2.165211 -2.975340
 19
 104.114932
  C 0.417642 0.432257 1.134206
  C 1.740074 0.146328 0.433330
  H 2.596728 0.392777 1.049319
  C 1.858978 -0.319893 -0.739452
  C 5.275125 -0.546846 -1.330148
  C 5.701836 -0.996977 -2.436625
  C 5.129561 -1.516085 -3.720091
  C 3.604119 -1.517086 -3.738379
  H 3.252559 -1.904684 -4.691910
  H 6.808421 -1.008449 -2.466689
  H 0.606531 0.828255 2.124852
  H -0.156739 -0.485350 1.208700
  H -0.151315 1.151156 0.553791
  H 1.537154 -0.688958 -1.675248
  H 5.384443 -0.146948 -0.355152
  H 5.507917 -2.528335 -3.878407
  H 5.514530 -0.903957 -4.538533
  H 3.224038 -0.505899 -3.618686
  H 3.217420 -2.152803 -2.946134
