 25
 0.000000
  C 0.904470 0.048970 0.271605
  C 2.395638 0.061355 0.085430
  C 3.242349 -0.010789 1.349160
  C 2.522730 -0.088812 2.692698
  H 3.254421 -0.134598 3.493860
  C 2.990995 0.128447 -1.122684
  C 2.350938 0.205263 -2.496243
  C 0.840413 0.217963 -2.709913
  H 0.636203 0.277088 -3.776026
  C 4.453122 0.133190 -1.213343
  C 5.193959 0.194394 -2.317261
  H 6.271277 0.192384 -2.286964
  H 0.620849 -0.003364 1.316344
  H 0.458636 -0.815861 -0.213085
  H 0.455902 0.955879 -0.125317
  H 3.888573 0.871875 1.379955
  H 3.889824 -0.890182 1.278414
  H 1.898660 -0.978895 2.752676
  H 1.897547 0.787639 2.854812
  H 2.744730 -0.643520 -3.065923
  H 2.745654 1.111473 -2.968469
  H 0.377622 1.077922 -2.235192
  H 0.376617 -0.688537 -2.332794
  H 4.994186 0.081284 -0.281331
  H 4.808216 0.250329 -3.321401
 25
 5.646113
  C 0.924443 0.069293 0.302968
  C 2.374406 0.068504 0.110677
  C 3.244592 0.014373 1.364420
  C 2.517487 -0.096331 2.701315
  H 3.257299 -0.127056 3.498561
  C 2.975781 0.130104 -1.108377
  C 2.341122 0.206620 -2.493203
  C 0.833307 0.247865 -2.739570
  H 0.672657 0.301604 -3.816970
  C 4.429111 0.113848 -1.211657
  C 5.151012 0.164700 -2.322113
  H 6.227033 0.154652 -2.274208
  H 0.607628 -0.031142 1.337602
  H 0.755001 -0.834341 -0.237798
  H 0.410311 0.916571 -0.149330
  H 3.860623 0.916299 1.401072
  H 3.919655 -0.841277 1.289941
  H 1.927357 -1.007606 2.762193
  H 1.874373 0.761623 2.881059
  H 2.732273 -0.654234 -3.048919
  H 2.761698 1.102358 -2.965005
  H 0.371428 1.126046 -2.299086
  H 0.328701 -0.644046 -2.380778
  H 4.982828 0.062514 -0.280765
  H 4.738739 0.219774 -3.311851
 25
 17.713923
  C 0.923647 0.085053 0.283762
  C 2.367300 0.077268 0.101673
  C 3.239960 0.032128 1.346453
  C 2.498656 -0.104883 2.684529
  H 3.229565 -0.126138 3.489799
  C 2.982410 0.133891 -1.122574
  C 2.317866 0.200413 -2.496419
  C 0.800961 0.269253 -2.682749
  H 0.597213 0.305801 -3.753953
  C 4.447439 0.108985 -1.211777
  C 5.197887 0.143352 -2.308170
  H 6.270521 0.125451 -2.231499
  H 0.570421 -0.063228 1.286440
  H 1.002954 -0.815262 -0.290964
  H 0.385660 0.880943 -0.194897
  H 3.834546 0.953683 1.386916
  H 3.939006 -0.806826 1.268039
  H 1.926641 -1.028149 2.731623
  H 1.834728 0.736729 2.862812
  H 2.675761 -0.678553 -3.053544
  H 2.737836 1.084099 -2.996145
  H 0.376788 1.169301 -2.241499
  H 0.289592 -0.602463 -2.282249
  H 4.985104 0.065019 -0.265593
  H 4.808003 0.190072 -3.308967
 25
 31.278528
  C 0.899183 0.100023 0.305639
  C 2.352674 0.083694 0.108065
  C 3.223227 0.030630 1.350677
  C 2.495282 -0.119378 2.680795
  H 3.231235 -0.142738 3.480118
  C 2.981212 0.142415 -1.124882
  C 2.328978 0.196919 -2.490257
  C 0.816862 0.284612 -2.686565
  H 0.619982 0.297417 -3.756382
  C 4.441263 0.117255 -1.217038
  C 5.179395 0.134731 -2.323771
  H 6.255169 0.121589 -2.261764
  H 0.541591 -0.050103 1.306333
  H 1.174839 -0.793448 -0.235435
  H 0.324927 0.837005 -0.222398
  H 3.808230 0.958183 1.393569
  H 3.930776 -0.802794 1.267761
  H 1.929166 -1.046673 2.724125
  H 1.829142 0.718024 2.868877
  H 2.676597 -0.692113 -3.028599
  H 2.763891 1.061843 -3.001393
  H 0.409343 1.202048 -2.273448
  H 0.288352 -0.565909 -2.267621
  H 4.986380 0.090809 -0.282848
  H 4.778271 0.162324 -3.320539
 25
 42.507402
  C 0.892790 0.127351 0.322652
  C 2.349104 0.081754 0.104212
  C 3.215444 0.015080 1.350954
  C 2.488907 -0.135672 2.679110
  H 3.226378 -0.170520 3.476586
  C 2.985279 0.147352 -1.130710
  C 2.335203 0.199780 -2.497719
  C 0.821741 0.288828 -2.692533
  H 0.620372 0.290299 -3.763360
  C 4.432724 0.130954 -1.220159
  C 5.171669 0.133326 -2.330821
  H 6.248122 0.127869 -2.268173
  H 0.539160 0.023904 1.330437
  H 1.309713 -0.783173 -0.142194
  H 0.288221 0.780539 -0.277992
  H 3.801853 0.939382 1.395264
  H 3.918877 -0.820907 1.265217
  H 1.914493 -1.057533 2.718867
  H 1.832084 0.706368 2.874122
  H 2.679266 -0.692884 -3.030528
  H 2.772245 1.059960 -3.014000
  H 0.418463 1.214554 -2.288634
  H 0.292811 -0.558514 -2.260999
  H 4.979658 0.127712 -0.288928
  H 4.769301 0.135651 -3.327680
 25
 50.476564
  C 0.887000 0.174777 0.334701
  C 2.345638 0.093907 0.098113
  C 3.212837 0.001531 1.349352
  C 2.484355 -0.163089 2.687519
  H 3.224304 -0.226981 3.479774
  C 2.990426 0.164186 -1.141059
  C 2.333129 0.203147 -2.518107
  C 0.821424 0.281986 -2.697654
  H 0.606808 0.261164 -3.765756
  C 4.430604 0.148824 -1.222318
  C 5.178567 0.131049 -2.330059
  H 6.251325 0.139476 -2.261809
  H 0.539457 0.129478 1.343186
  H 1.415302 -0.765703 -0.051796
  H 0.256838 0.730084 -0.332946
  H 3.806410 0.917100 1.403528
  H 3.905871 -0.837000 1.247864
  H 1.893858 -1.072686 2.713947
  H 1.845983 0.684795 2.904630
  H 2.676005 -0.696563 -3.047594
  H 2.764327 1.060303 -3.050145
  H 0.418808 1.215728 -2.307818
  H 0.304093 -0.561679 -2.242732
  H 4.971380 0.170550 -0.291337
  H 4.784863 0.107499 -3.325692
 25
 56.266224
  C 0.875935 0.228381 0.352258
  C 2.328761 0.100281 0.095444
  C 3.207727 -0.012125 1.341985
  C 2.502772 -0.187037 2.679733
  H 3.254981 -0.282542 3.457350
  C 2.976081 0.176134 -1.150935
  C 2.332220 0.205389 -2.518658
  C 0.824273 0.267580 -2.714706
  H 0.620872 0.230370 -3.786664
  C 4.417992 0.159983 -1.219532
  C 5.181129 0.130717 -2.318206
  H 6.253651 0.149317 -2.232866
  H 0.536279 0.233200 1.363159
  H 1.476280 -0.741608 0.027475
  H 0.223346 0.693060 -0.361362
  H 3.808793 0.892354 1.401716
  H 3.887395 -0.853998 1.221030
  H 1.892027 -1.086039 2.697463
  H 1.886298 0.671597 2.925800
  H 2.686571 -0.693806 -3.040925
  H 2.760348 1.062682 -3.049608
  H 0.408316 1.203241 -2.341231
  H 0.310341 -0.577566 -2.254014
  H 4.949260 0.200443 -0.284926
  H 4.799306 0.090201 -3.316332
 25
 61.396301
  C 0.882501 0.264615 0.328874
  C 2.334933 0.097890 0.083930
  C 3.211894 -0.019176 1.355944
  C 2.499002 -0.200603 2.676342
  H 3.246314 -0.307820 3.460844
  C 2.987983 0.176769 -1.152134
  C 2.328257 0.202237 -2.527512
  C 0.817040 0.256289 -2.691724
  H 0.589807 0.212473 -3.761360
  C 4.420379 0.164052 -1.218184
  C 5.188094 0.132338 -2.315888
  H 6.258647 0.151014 -2.222901
  H 0.529434 0.278886 1.335039
  H 1.548759 -0.727760 0.027030
  H 0.234669 0.690687 -0.406392
  H 3.811532 0.881062 1.430162
  H 3.893478 -0.862148 1.240695
  H 1.880483 -1.099752 2.678263
  H 1.884825 0.661486 2.924214
  H 2.680812 -0.703730 -3.061603
  H 2.747012 1.069527 -3.071375
  H 0.406074 1.186871 -2.314440
  H 0.321482 -0.583066 -2.220629
  H 4.961368 0.211333 -0.263104
  H 4.801193 0.084143 -3.339973
 25
 65.163465
  C 0.872955 0.313845 0.351694
  C 2.319823 0.099918 0.089207
  C 3.209529 -0.025786 1.339447
  C 2.507298 -0.219656 2.695366
  H 3.268959 -0.343931 3.470272
  C 2.974861 0.181853 -1.157725
  C 2.334724 0.198238 -2.526798
  C 0.822575 0.241393 -2.723301
  H 0.617282 0.185277 -3.797442
  C 4.411237 0.166309 -1.219017
  C 5.183948 0.134246 -2.316913
  H 6.268813 0.158683 -2.222869
  H 0.518661 0.320993 1.368455
  H 1.576847 -0.714422 0.045191
  H 0.224685 0.708503 -0.382456
  H 3.817299 0.877129 1.408577
  H 3.889314 -0.875011 1.201056
  H 1.882919 -1.106925 2.700035
  H 1.908812 0.639562 2.964553
  H 2.699368 -0.702291 -3.046183
  H 2.755407 1.058218 -3.062610
  H 0.398803 1.172285 -2.365629
  H 0.317639 -0.603910 -2.248952
  H 4.941001 0.215701 -0.278866
  H 4.808290 0.089146 -3.308099
 25
 67.777354
  C 0.888673 0.370797 0.353349
  C 2.325407 0.094117 0.099475
  C 3.213178 -0.034030 1.351231
  C 2.504477 -0.235872 2.683725
  H 3.253062 -0.374884 3.458374
  C 2.990457 0.187327 -1.161459
  C 2.336583 0.197628 -2.530895
  C 0.821759 0.220031 -2.709471
  H 0.605389 0.153681 -3.774098
  C 4.419808 0.176656 -1.219282
  C 5.194352 0.143071 -2.317012
  H 6.265371 0.147352 -2.220420
  H 0.513299 0.357542 1.355076
  H 1.618751 -0.722522 0.052911
  H 0.236881 0.729025 -0.406935
  H 3.821947 0.870908 1.430442
  H 3.890707 -0.880072 1.210893
  H 1.871497 -1.119715 2.671357
  H 1.908200 0.629033 2.957853
  H 2.705901 -0.693963 -3.053644
  H 2.740875 1.061982 -3.071402
  H 0.386920 1.151466 -2.351544
  H 0.336444 -0.624587 -2.225870
  H 4.949557 0.219869 -0.276320
  H 4.814525 0.085739 -3.323702
 25
 69.112950
  C 0.904126 0.454054 0.360626
  C 2.320844 0.090519 0.102782
  C 3.213516 -0.050716 1.350074
  C 2.505795 -0.258052 2.686372
  H 3.252678 -0.417070 3.455679
  C 2.992285 0.186311 -1.163853
  C 2.338539 0.184274 -2.531515
  C 0.821539 0.191392 -2.710875
  H 0.605731 0.104525 -3.773204
  C 4.420739 0.170074 -1.217021
  C 5.199606 0.148749 -2.314911
  H 6.267787 0.183684 -2.216298
  H 0.511470 0.407773 1.353683
  H 1.640731 -0.730369 0.044332
  H 0.255308 0.792779 -0.409535
  H 3.828620 0.847414 1.433189
  H 3.883377 -0.902111 1.199184
  H 1.860846 -1.129668 2.665901
  H 1.923138 0.611485 2.972248
  H 2.715004 -0.708087 -3.048492
  H 2.735582 1.045172 -3.076448
  H 0.378433 1.124457 -2.370162
  H 0.342397 -0.649926 -2.211268
  H 4.947005 0.222483 -0.275721
  H 4.821604 0.113994 -3.322280
 25
 68.335472
  C 0.938228 0.563579 0.376956
  C 2.320440 0.091008 0.114894
  C 3.206506 -0.066807 1.351697
  C 2.486691 -0.287493 2.676588
  H 3.226952 -0.472963 3.451075
  C 3.006171 0.193025 -1.166646
  C 2.340101 0.173088 -2.531560
  C 0.831572 0.149622 -2.690357
  H 0.601762 0.033174 -3.756334
  C 4.432252 0.178844 -1.223408
  C 5.205418 0.162211 -2.327358
  H 6.273186 0.209896 -2.236473
  H 0.517179 0.463139 1.350138
  H 1.663629 -0.751277 0.031947
  H 0.292507 0.893303 -0.404758
  H 3.826662 0.826517 1.448384
  H 3.870956 -0.921753 1.190077
  H 1.825189 -1.151874 2.633636
  H 1.915929 0.583636 2.972348
  H 2.725779 -0.718680 -3.047588
  H 2.717130 1.038992 -3.089927
  H 0.377518 1.077932 -2.365803
  H 0.375975 -0.687978 -2.163443
  H 4.962407 0.238113 -0.287764
  H 4.820955 0.127480 -3.329327
 25
 67.936093
  C 0.974663 0.671222 0.377085
  C 2.320721 0.100531 0.109023
  C 3.211631 -0.086153 1.351032
  C 2.483791 -0.329311 2.676046
  H 3.218939 -0.546894 3.448911
  C 3.008081 0.208186 -1.170513
  C 2.340439 0.165275 -2.531595
  C 0.822552 0.097396 -2.685726
  H 0.592067 -0.051722 -3.745863
  C 4.428678 0.199132 -1.221865
  C 5.209722 0.175681 -2.324104
  H 6.278830 0.215563 -2.225348
  H 0.521096 0.526481 1.333491
  H 1.680500 -0.739394 0.008084
  H 0.340344 1.006174 -0.412804
  H 3.835847 0.797658 1.466010
  H 3.864721 -0.936314 1.173672
  H 1.806824 -1.181842 2.609462
  H 1.926643 0.542736 2.991419
  H 2.747088 -0.715907 -3.040464
  H 2.691984 1.033839 -3.094592
  H 0.342488 1.019657 -2.381976
  H 0.392115 -0.735363 -2.137243
  H 4.955506 0.257337 -0.280202
  H 4.827151 0.122341 -3.332118
 25
 66.434793
  C 1.019995 0.782232 0.385132
  C 2.314333 0.106623 0.112647
  C 3.201227 -0.113412 1.348647
  C 2.468562 -0.374426 2.659519
  H 3.195001 -0.624767 3.426727
  C 3.014791 0.217132 -1.175308
  C 2.340781 0.150065 -2.529905
  C 0.828841 0.033485 -2.663406
  H 0.590325 -0.146217 -3.714238
  C 4.429088 0.221445 -1.225177
  C 5.209536 0.195745 -2.329590
  H 6.281411 0.220540 -2.232236
  H 0.530866 0.599898 1.320543
  H 1.690655 -0.744951 -0.016849
  H 0.410144 1.149199 -0.409273
  H 3.837890 0.763859 1.483954
  H 3.847628 -0.972909 1.153194
  H 1.777689 -1.209760 2.568269
  H 1.923480 0.504079 2.995864
  H 2.768726 -0.725120 -3.038953
  H 2.662900 1.027417 -3.104707
  H 0.321593 0.948447 -2.372085
  H 0.431034 -0.799713 -2.088825
  H 4.954775 0.285966 -0.284091
  H 4.824489 0.125778 -3.330720
