 29
 0.000000
  C 0.987386 0.134465 0.385761
  C 2.463977 0.140317 0.399787
  C 3.234941 0.612156 1.574161
  C 2.446400 1.098999 2.786465
  C 3.388274 1.546407 3.900044
  C 3.087295 -0.323115 -0.754324
  C 4.463437 -0.411346 -0.974693
  C 5.128276 -0.865783 -2.107055
  C 4.621340 -1.386794 -3.405431
  C 3.129931 -1.500077 -3.688691
  H 2.972210 -1.898756 -4.682199
  O 6.450706 -0.865931 -2.107605
  H 0.542730 0.502753 1.302870
  H 0.622382 -0.878902 0.214550
  H 0.622018 0.747758 -0.438761
  H 3.892001 1.425773 1.246390
  H 3.892262 -0.201928 1.900207
  H 1.808663 0.299958 3.168963
  H 1.808452 1.940501 2.510037
  H 4.024166 0.726507 4.226818
  H 2.817563 1.891233 4.758806
  H 4.023920 2.364697 3.568801
  H 2.428781 -0.640620 -1.544588
  H 5.090773 -0.081973 -0.154458
  H 5.075571 -2.375806 -3.533371
  H 5.076042 -0.760946 -4.181616
  H 2.655227 -0.522518 -3.638101
  H 2.654741 -2.171193 -2.976426
  H 6.837404 -0.532847 -1.276247
 29
 -0.085076
  C 0.948959 0.114207 0.415492
  C 2.423768 0.073272 0.413479
  C 3.221877 0.578135 1.555558
  C 2.462189 1.134675 2.758545
  C 3.438316 1.597114 3.836147
  C 3.031941 -0.450610 -0.723704
  C 4.409646 -0.559100 -0.908592
  C 5.116583 -0.892509 -2.059907
  C 4.640528 -1.311558 -3.405765
  C 3.156629 -1.433716 -3.705889
  H 3.043215 -1.754011 -4.739431
  O 6.435735 -0.854282 -2.031498
  H 0.531302 0.530568 1.323637
  H 0.551207 -0.890707 0.268276
  H 0.593994 0.696983 -0.435722
  H 3.894249 1.360533 1.187906
  H 3.869410 -0.231298 1.907571
  H 1.811681 0.368436 3.183065
  H 1.846787 1.984179 2.458066
  H 4.056037 0.771768 4.182538
  H 2.897740 1.992568 4.692101
  H 4.090696 2.381813 3.460234
  H 2.372079 -0.765440 -1.513230
  H 5.030128 -0.292214 -0.061342
  H 5.128688 -2.271736 -3.606834
  H 5.096315 -0.614421 -4.117024
  H 2.649117 -0.478639 -3.602463
  H 2.682738 -2.182924 -3.078129
  H 6.819724 -0.589343 -1.176041
 29
 -0.039476
  C 0.956875 0.212453 0.371387
  C 2.429115 0.122770 0.394265
  C 3.222993 0.653650 1.527787
  C 2.462943 1.094410 2.776013
  C 3.438602 1.535819 3.865080
  C 3.038910 -0.431709 -0.726839
  C 4.416244 -0.553996 -0.908818
  C 5.118794 -0.912811 -2.054582
  C 4.638613 -1.346454 -3.397246
  C 3.154447 -1.510586 -3.682468
  H 3.041055 -1.857439 -4.705372
  O 6.436909 -0.880753 -2.028112
  H 0.533054 0.535707 1.311522
  H 0.523126 -0.746034 0.087841
  H 0.651103 0.916543 -0.404571
  H 3.800227 1.513092 1.163128
  H 3.961634 -0.097887 1.825512
  H 1.859685 0.268344 3.158582
  H 1.800678 1.928230 2.544069
  H 4.106765 0.724060 4.142581
  H 2.897388 1.843204 4.756430
  H 4.039759 2.377411 3.531445
  H 2.378422 -0.763082 -1.509154
  H 5.042198 -0.270391 -0.071166
  H 5.152318 -2.293319 -3.602634
  H 5.067636 -0.636718 -4.114602
  H 2.625014 -0.566988 -3.598264
  H 2.703760 -2.254651 -3.033540
  H 6.823824 -0.605524 -1.175953
 29
 0.362262
  C 0.978345 0.375276 0.300265
  C 2.436902 0.176867 0.371597
  C 3.227618 0.711279 1.504791
  C 2.467446 1.051559 2.785476
  C 3.439804 1.447159 3.891260
  C 3.038227 -0.447189 -0.715613
  C 4.416331 -0.570735 -0.900028
  C 5.117421 -0.923711 -2.048655
  C 4.633574 -1.371011 -3.387714
  C 3.155807 -1.619109 -3.640901
  H 3.040624 -1.980090 -4.657495
  O 6.434651 -0.865756 -2.032119
  H 0.541662 0.658793 1.245756
  H 0.484644 -0.516701 -0.079109
  H 0.764954 1.166365 -0.418139
  H 3.728095 1.624879 1.161139
  H 4.022351 0.005767 1.756752
  H 1.889165 0.182041 3.116218
  H 1.781139 1.880420 2.616710
  H 4.133022 0.639768 4.108015
  H 2.900345 1.677633 4.803553
  H 4.011596 2.324574 3.609686
  H 2.374634 -0.807609 -1.484110
  H 5.045655 -0.261896 -0.073240
  H 5.195772 -2.283024 -3.613504
  H 5.003800 -0.629745 -4.108894
  H 2.577017 -0.706774 -3.553931
  H 2.760701 -2.379681 -2.975860
  H 6.823009 -0.581105 -1.185579
 29
 1.458379
  C 1.036920 0.587365 0.194240
  C 2.457151 0.219157 0.350330
  C 3.246338 0.740156 1.492267
  C 2.469993 1.047048 2.776882
  C 3.432539 1.349882 3.920412
  C 3.034992 -0.518784 -0.676491
  C 4.412014 -0.643240 -0.874158
  C 5.108076 -0.984320 -2.027956
  C 4.615186 -1.391931 -3.372089
  C 3.138285 -1.663932 -3.608162
  H 3.008456 -1.972202 -4.643050
  O 6.425894 -0.932200 -2.016625
  H 0.574174 0.895033 1.124392
  H 0.464375 -0.223452 -0.252596
  H 0.971375 1.428560 -0.499520
  H 3.729509 1.670993 1.169920
  H 4.047591 0.039842 1.738415
  H 1.855564 0.186657 3.048750
  H 1.816986 1.909699 2.638276
  H 4.098831 0.509771 4.103753
  H 2.880652 1.545210 4.836515
  H 4.036420 2.227018 3.698284
  H 2.363960 -0.930088 -1.410221
  H 5.046551 -0.319977 -0.056961
  H 5.194975 -2.281518 -3.640032
  H 4.954605 -0.617739 -4.070156
  H 2.538442 -0.771355 -3.459505
  H 2.776652 -2.469384 -2.976123
  H 6.820224 -0.676236 -1.162368
 29
 3.464842
  C 1.096544 0.616741 0.149147
  C 2.484226 0.157303 0.358786
  C 3.272721 0.651891 1.512738
  C 2.473094 1.090403 2.744787
  C 3.417513 1.421238 3.897488
  C 3.034072 -0.653640 -0.623947
  C 4.411674 -0.764313 -0.836976
  C 5.103651 -1.020158 -2.014609
  C 4.600386 -1.357411 -3.371139
  C 3.113109 -1.583298 -3.604656
  H 2.962582 -1.813873 -4.657168
  O 6.422705 -0.963123 -2.011374
  H 0.650004 1.032750 1.041671
  H 0.469814 -0.182133 -0.240623
  H 1.106096 1.401009 -0.606266
  H 3.860838 1.513783 1.184636
  H 3.985462 -0.118246 1.824547
  H 1.803996 0.283550 3.053914
  H 1.873473 1.977353 2.525623
  H 3.998727 0.549040 4.189719
  H 2.852421 1.751848 4.764137
  H 4.105822 2.217513 3.621063
  H 2.356146 -1.076551 -1.344655
  H 5.047918 -0.510100 0.002797
  H 5.155926 -2.249671 -3.676620
  H 4.955715 -0.564398 -4.037872
  H 2.533956 -0.691359 -3.381204
  H 2.742992 -2.425653 -3.026237
  H 6.821504 -0.710851 -1.158057
 29
 7.576485
  C 1.183463 0.667767 0.061976
  C 2.512903 0.099455 0.360784
  C 3.304910 0.603659 1.513548
  C 2.499879 1.196930 2.677711
  C 3.407383 1.432925 3.881912
  C 3.018959 -0.827197 -0.536947
  C 4.393625 -0.889280 -0.785584
  C 5.071507 -1.040619 -1.980515
  C 4.551790 -1.244248 -3.360778
  C 3.093610 -1.609034 -3.572976
  H 2.910788 -1.682398 -4.642498
  O 6.397604 -0.973312 -1.985655
  H 0.733399 1.162984 0.917008
  H 0.509455 -0.088002 -0.328775
  H 1.299588 1.423503 -0.719718
  H 3.991138 1.387956 1.172414
  H 3.922088 -0.211600 1.901209
  H 1.703683 0.506637 2.967810
  H 2.054464 2.146172 2.391411
  H 3.840401 0.499056 4.232450
  H 2.839868 1.869206 4.701909
  H 4.216030 2.115928 3.632422
  H 2.335477 -1.296818 -1.218310
  H 5.035335 -0.699681 0.074032
  H 5.190081 -2.015458 -3.805125
  H 4.782812 -0.333181 -3.920620
  H 2.427937 -0.844003 -3.180539
  H 2.857029 -2.571980 -3.126603
  H 6.802379 -0.768696 -1.127406
 29
 12.985297
  C 1.318135 0.832533 -0.064467
  C 2.564652 0.146380 0.327569
  C 3.337342 0.628089 1.503687
  C 2.506598 1.161887 2.677503
  C 3.402660 1.408215 3.885102
  C 2.991214 -0.895740 -0.475875
  C 4.370051 -0.963636 -0.746896
  C 5.032123 -1.070077 -1.951230
  C 4.490120 -1.193871 -3.333652
  C 3.063756 -1.680145 -3.545006
  H 2.859819 -1.704482 -4.612498
  O 6.354491 -0.993824 -1.969907
  H 0.882052 1.408424 0.742809
  H 0.580040 0.130869 -0.451640
  H 1.550365 1.528387 -0.869411
  H 4.015058 1.437339 1.196916
  H 3.963603 -0.186981 1.874553
  H 1.741234 0.432429 2.947744
  H 2.020892 2.100913 2.415886
  H 3.945156 0.506295 4.160233
  H 2.803920 1.716503 4.742898
  H 4.126353 2.196648 3.680497
  H 2.280984 -1.384482 -1.122296
  H 5.022326 -0.846788 0.112302
  H 5.182920 -1.861614 -3.856856
  H 4.615509 -0.218880 -3.815771
  H 2.340376 -1.010778 -3.093076
  H 2.928206 -2.685328 -3.156537
  H 6.767887 -0.841317 -1.102226
 29
 20.854410
  C 1.471008 0.832251 -0.163459
  C 2.627991 0.054696 0.320978
  C 3.360947 0.508930 1.533238
  C 2.507478 1.166146 2.623226
  C 3.373446 1.471496 3.843389
  C 3.007645 -1.073451 -0.393746
  C 4.393575 -0.993671 -0.723197
  C 5.014010 -1.033489 -1.952305
  C 4.425278 -1.148108 -3.316680
  C 2.967649 -1.530481 -3.458224
  H 2.697509 -1.504452 -4.511175
  O 6.337412 -0.927195 -2.021870
  H 1.043340 1.475698 0.599134
  H 0.692509 0.190323 -0.559043
  H 1.813511 1.479281 -0.973326
  H 4.144788 1.226201 1.273356
  H 3.859552 -0.355167 1.977225
  H 1.710774 0.488318 2.917297
  H 2.071645 2.099603 2.265177
  H 3.848375 0.572181 4.224781
  H 2.764899 1.895767 4.644819
  H 4.145731 2.189629 3.599542
  H 2.300242 -1.584153 -1.026178
  H 5.070081 -0.859716 0.109873
  H 5.047856 -1.872051 -3.847308
  H 4.599003 -0.189840 -3.827262
  H 2.316171 -0.832853 -2.932868
  H 2.786440 -2.541045 -3.096091
  H 6.792204 -0.910431 -1.164433
 29
 27.620837
  C 1.547760 0.770963 -0.204751
  C 2.660522 -0.051256 0.307452
  C 3.403277 0.425001 1.508609
  C 2.586951 1.269526 2.507686
  C 3.411872 1.513182 3.765006
  C 2.976412 -1.212050 -0.340796
  C 4.365651 -1.109618 -0.677381
  C 4.958330 -1.032826 -1.906727
  C 4.360050 -1.040644 -3.274507
  C 2.896668 -1.389396 -3.425510
  H 2.626859 -1.315039 -4.471526
  O 6.286346 -0.880655 -1.980289
  H 1.112086 1.427313 0.538375
  H 0.761996 0.134528 -0.625143
  H 1.935403 1.399888 -1.004501
  H 4.269212 1.030156 1.245564
  H 3.777487 -0.443923 2.032263
  H 1.662918 0.741964 2.802238
  H 2.319574 2.242767 2.085809
  H 3.683564 0.579727 4.249888
  H 2.847840 2.098935 4.473863
  H 4.318537 2.059578 3.535993
  H 2.279713 -1.669851 -1.011564
  H 5.051778 -1.020888 0.161225
  H 4.972102 -1.727861 -3.861645
  H 4.537678 -0.051597 -3.706395
  H 2.256121 -0.704131 -2.867739
  H 2.692459 -2.415206 -3.108810
  H 6.733492 -0.768882 -1.124996
 29
 35.731733
  C 1.571559 0.765561 -0.205313
  C 2.654991 -0.050802 0.292745
  C 3.392938 0.388073 1.514967
  C 2.615638 1.280464 2.489054
  C 3.476873 1.523329 3.712904
  C 2.904891 -1.228078 -0.368242
  C 4.271287 -0.999174 -0.680421
  C 4.900858 -0.882667 -1.890523
  C 4.386942 -0.966097 -3.304294
  C 2.939625 -1.407022 -3.513665
  H 2.678834 -1.339570 -4.564632
  O 6.226358 -0.729393 -1.855053
  H 1.155232 1.434916 0.523138
  H 0.745576 0.149675 -0.586615
  H 1.987683 1.388107 -0.987013
  H 4.292827 0.953845 1.290945
  H 3.705307 -0.514697 2.055726
  H 1.697200 0.797834 2.820410
  H 2.361710 2.247488 2.023014
  H 3.738063 0.596633 4.203892
  H 2.942690 2.155168 4.445070
  H 4.405251 2.048135 3.432349
  H 2.149935 -1.704291 -1.026159
  H 4.963274 -0.983996 0.200681
  H 5.049968 -1.673820 -3.839650
  H 4.558713 0.013237 -3.759258
  H 2.258473 -0.783346 -2.955495
  H 2.779343 -2.445251 -3.229287
  H 6.600920 -0.649957 -1.005524
 29
 41.469191
  C 1.840989 0.792184 -0.451363
  C 2.846018 -0.078590 0.229453
  C 3.526142 0.427279 1.472843
  C 2.599250 1.202414 2.424463
  C 3.333293 1.499427 3.728888
  C 2.955553 -1.386104 -0.237728
  C 4.299124 -0.992614 -0.598972
  C 4.858556 -0.838175 -1.856315
  C 4.220646 -0.869861 -3.204502
  C 2.799453 -1.395591 -3.342013
  H 2.495461 -1.314508 -4.381870
  O 6.164584 -0.626236 -1.960016
  H 1.419231 1.526418 0.220936
  H 1.034480 0.202629 -0.878498
  H 2.334221 1.334507 -1.256797
  H 4.358820 1.091379 1.234356
  H 3.921484 -0.427894 2.024235
  H 1.712672 0.609080 2.648771
  H 2.287205 2.147440 1.978770
  H 3.649514 0.581810 4.221291
  H 2.685071 2.037975 4.412760
  H 4.212075 2.111917 3.547621
  H 2.254100 -1.929190 -0.836149
  H 5.005577 -0.963055 0.222903
  H 4.888675 -1.464884 -3.835240
  H 4.276335 0.145068 -3.612092
  H 2.092075 -0.818304 -2.751336
  H 2.738420 -2.445847 -3.063437
  H 6.651304 -0.606603 -1.119914
 29
 41.474129
  C 2.127853 0.867874 -0.597757
  C 3.036848 -0.047918 0.176950
  C 3.609849 0.489664 1.474801
  C 2.561255 1.124280 2.395141
  C 3.176586 1.415730 3.758604
  C 3.030061 -1.427947 -0.136911
  C 4.324914 -0.907773 -0.573429
  C 4.800875 -0.739719 -1.887366
  C 4.058456 -0.816155 -3.174204
  C 2.729834 -1.555291 -3.228151
  H 2.366388 -1.535981 -4.251431
  O 6.073153 -0.486511 -2.079842
  H 1.683951 1.612893 0.052069
  H 1.328476 0.314860 -1.083098
  H 2.698330 1.394580 -1.362717
  H 4.381877 1.235386 1.272650
  H 4.058774 -0.336115 2.028235
  H 1.718058 0.442417 2.519843
  H 2.190608 2.062141 1.980090
  H 3.543233 0.500603 4.227371
  H 2.433112 1.858373 4.418866
  H 4.006976 2.113161 3.667932
  H 2.323443 -2.040265 -0.653184
  H 5.111831 -0.920703 0.175543
  H 4.751771 -1.271520 -3.890060
  H 3.920367 0.212784 -3.525614
  H 1.974295 -1.090626 -2.606785
  H 2.853512 -2.594016 -2.940151
  H 6.620336 -0.394614 -1.277173
 29
 39.925848
  C 2.275331 0.969572 -0.684948
  C 3.114799 0.021215 0.138268
  C 3.646940 0.569875 1.451109
  C 2.536993 1.052539 2.392903
  C 3.116078 1.364307 3.769862
  C 3.009138 -1.376915 -0.087523
  C 4.318379 -0.883148 -0.550189
  C 4.776836 -0.765231 -1.882604
  C 3.976395 -0.774189 -3.132734
  C 2.717087 -1.628094 -3.184297
  H 2.332767 -1.615795 -4.200528
  O 6.050056 -0.609510 -2.113348
  H 1.860785 1.750610 -0.059651
  H 1.456130 0.451574 -1.174061
  H 2.887786 1.448121 -1.445961
  H 4.333367 1.396751 1.261284
  H 4.186380 -0.218758 1.975524
  H 1.775554 0.276729 2.490243
  H 2.059712 1.953148 2.008981
  H 3.568773 0.479655 4.212819
  H 2.331420 1.711779 4.437346
  H 3.873643 2.142217 3.703153
  H 2.286470 -2.011800 -0.546316
  H 5.122605 -0.960118 0.177468
  H 4.659747 -1.083739 -3.928465
  H 3.717594 0.268694 -3.357852
  H 1.934928 -1.249161 -2.536936
  H 2.938675 -2.658756 -2.922980
  H 6.630655 -0.541978 -1.330345
 29
 38.534926
  C 2.391489 1.094982 -0.732594
  C 3.162442 0.118794 0.122568
  C 3.673259 0.694829 1.429846
  C 2.526112 0.946745 2.415649
  C 3.078091 1.334781 3.782907
  C 2.976720 -1.278442 -0.053459
  C 4.310505 -0.868385 -0.533667
  C 4.750160 -0.835700 -1.877136
  C 3.906229 -0.750250 -3.096783
  C 2.723233 -1.711420 -3.192615
  H 2.345103 -1.694184 -4.210585
  O 6.021818 -0.855981 -2.144803
  H 1.870976 1.807546 -0.100879
  H 1.661220 0.593720 -1.360727
  H 3.077491 1.659142 -1.362146
  H 4.200664 1.632708 1.241210
  H 4.359493 -0.001350 1.909747
  H 1.923594 0.041504 2.511641
  H 1.877922 1.747404 2.061607
  H 3.697920 0.539502 4.194085
  H 2.262768 1.521155 4.478035
  H 3.679163 2.239682 3.714103
  H 2.221380 -1.883280 -0.499995
  H 5.117075 -0.975392 0.187270
  H 4.575478 -0.907322 -3.945508
  H 3.533316 0.278018 -3.174158
  H 1.907893 -1.426399 -2.537813
  H 3.030059 -2.727190 -2.964296
  H 6.633450 -0.855626 -1.381282
