 9
 0.000000
  C 1.007742 -0.071498 0.047699
  C 2.505840 -0.086083 0.019069
  C 3.209710 -0.592044 -0.974220
  H 4.285197 -0.598010 -0.985932
  H 0.646156 0.394101 0.961739
  H 0.611740 -1.085624 0.006380
  H 0.611740 0.491344 -0.796913
  H 3.009510 0.348445 0.872120
  H 2.709324 -1.025692 -1.825538
 9
 -0.070857
  C 1.004748 -0.066309 0.055256
  C 2.502411 -0.082167 0.013803
  C 3.206081 -0.600984 -0.974960
  H 4.281436 -0.594384 -0.976404
  H 0.643912 0.370021 0.983285
  H 0.609965 -1.077408 -0.029402
  H 0.607915 0.514714 -0.777476
  H 3.010679 0.370254 0.858210
  H 2.730799 -1.058585 -1.827492
 9
 -0.084618
  C 1.003497 -0.064079 0.054435
  C 2.502746 -0.074478 0.011913
  C 3.205743 -0.607352 -0.969639
  H 4.281417 -0.594690 -0.976736
  H 0.644710 0.342228 0.996009
  H 0.613361 -1.074261 -0.063996
  H 0.607831 0.542751 -0.757790
  H 3.008706 0.393829 0.845491
  H 2.732277 -1.086204 -1.811476
 9
 -0.008791
  C 1.003075 -0.066424 0.054387
  C 2.500489 -0.090649 0.019808
  C 3.205316 -0.588551 -0.978546
  H 4.281902 -0.598043 -0.971121
  H 0.650083 0.410404 0.965654
  H 0.613001 -1.083211 0.014420
  H 0.617886 0.485119 -0.798653
  H 3.004415 0.335860 0.877304
  H 2.732386 -1.021120 -1.844186
 9
 -0.045607
  C 1.001869 -0.067327 0.057286
  C 2.502935 -0.097428 0.025091
  C 3.207446 -0.586670 -0.977947
  H 4.283075 -0.592868 -0.971304
  H 0.649619 0.437409 0.952772
  H 0.606173 -1.081697 0.051154
  H 0.619756 0.456889 -0.817733
  H 3.008213 0.313524 0.888310
  H 2.733874 -0.992363 -1.856897
 9
 -0.053476
  C 1.004052 -0.064386 0.054103
  C 2.501432 -0.093025 0.026229
  C 3.205148 -0.573849 -0.981674
  H 4.282737 -0.590861 -0.973214
  H 0.652831 0.481951 0.925638
  H 0.618312 -1.082573 0.104126
  H 0.615938 0.414309 -0.842168
  H 3.003423 0.277115 0.912332
  H 2.729726 -0.971940 -1.860701
 9
 -0.083796
  C 1.007356 -0.060491 0.062320
  C 2.503569 -0.099824 0.029160
  C 3.205375 -0.579809 -0.979752
  H 4.280343 -0.591713 -0.973385
  H 0.651320 0.464917 0.945001
  H 0.604337 -1.073270 0.078098
  H 0.619057 0.440593 -0.823075
  H 3.011124 0.288230 0.900060
  H 2.726827 -0.983254 -1.857217
 9
 -0.049993
  C 1.002989 -0.062341 0.063362
  C 2.500705 -0.093293 0.029418
  C 3.203696 -0.585571 -0.974138
  H 4.280602 -0.592245 -0.971760
  H 0.650614 0.429737 0.966097
  H 0.603590 -1.076106 0.043291
  H 0.615605 0.474102 -0.801290
  H 3.008243 0.323492 0.890114
  H 2.728132 -1.003264 -1.846504
 9
 0.289892
  C 0.995597 -0.070696 0.051528
  C 2.499718 -0.087615 0.032636
  C 3.194234 -0.581176 -0.976053
  H 4.273608 -0.593486 -0.968525
  H 0.657670 0.404963 0.977308
  H 0.606788 -1.082399 0.026839
  H 0.632299 0.508065 -0.782631
  H 3.000700 0.346300 0.886646
  H 2.705786 -1.019697 -1.830769
 9
 -0.018856
  C 0.995886 -0.057340 0.072791
  C 2.494627 -0.086131 0.025515
  C 3.191285 -0.590817 -0.975150
  H 4.266453 -0.598966 -0.975301
  H 0.655113 0.438643 0.978934
  H 0.596870 -1.070792 0.062369
  H 0.604192 0.480308 -0.787709
  H 3.008740 0.331050 0.879100
  H 2.709858 -1.011091 -1.843718
 9
 -0.048399
  C 0.981989 -0.056255 0.081366
  C 2.478833 -0.080469 0.027537
  C 3.166932 -0.594073 -0.972711
  H 4.241508 -0.613747 -0.976467
  H 0.635325 0.434075 0.985616
  H 0.586536 -1.071488 0.064425
  H 0.579859 0.475789 -0.780167
  H 2.996553 0.347841 0.876371
  H 2.679077 -1.020206 -1.834308
 9
 0.093818
  C 0.974419 -0.070725 0.074702
  C 2.470792 -0.085893 0.026994
  C 3.167524 -0.596079 -0.973044
  H 4.245931 -0.598350 -0.975020
  H 0.632953 0.437175 0.973174
  H 0.584006 -1.080029 0.079531
  H 0.579611 0.459981 -0.799428
  H 2.984303 0.308155 0.897780
  H 2.685389 -1.017482 -1.841051
 9
 -0.018687
  C 0.972658 -0.067056 0.074538
  C 2.471116 -0.100019 0.031141
  C 3.170812 -0.591716 -0.974311
  H 4.247395 -0.589051 -0.975168
  H 0.629152 0.460897 0.960476
  H 0.574483 -1.081056 0.101916
  H 0.580574 0.439147 -0.806226
  H 2.984470 0.287694 0.900983
  H 2.694269 -1.002088 -1.849713
 9
 -0.208819
  C 0.977387 -0.068797 0.078292
  C 2.472911 -0.118072 0.041283
  C 3.171148 -0.569971 -0.983714
  H 4.247335 -0.601953 -0.973593
  H 0.626050 0.525146 0.919322
  H 0.570645 -1.075290 0.178124
  H 0.583429 0.357871 -0.842346
  H 2.984137 0.233272 0.927801
  H 2.691885 -0.925455 -1.881532
 9
 -0.220328
  C 0.976756 -0.068589 0.078849
  C 2.473893 -0.120214 0.042461
  C 3.171856 -0.568582 -0.984010
  H 4.247350 -0.601664 -0.973882
  H 0.626035 0.528656 0.914375
  H 0.568423 -1.073873 0.183614
  H 0.583136 0.353108 -0.844199
  H 2.985265 0.228765 0.929728
  H 2.692215 -0.920853 -1.883299
