 16
 0.000000
  C 1.040303 0.132567 0.356862
  C 2.504026 0.154344 0.376490
  C 3.227644 0.614152 1.562617
  H 2.558432 0.916184 2.356765
  C 3.168953 -0.286534 -0.768512
  C 4.563292 -0.369106 -0.942760
  C 5.107244 -0.858586 -2.085331
  H 4.489836 -1.201414 -2.897785
  H 6.171208 -0.924484 -2.216945
  H 0.599612 0.472169 1.287915
  H 0.684321 -0.873479 0.126637
  H 0.666486 0.744518 -0.468523
  H 3.885775 1.447495 1.309441
  H 3.893539 -0.168308 1.931249
  H 2.556542 -0.613545 -1.599220
  H 5.215907 -0.036821 -0.148484
 16
 0.170385
  C 1.035100 0.148245 0.358489
  C 2.496824 0.189660 0.354645
  C 3.226051 0.619563 1.550140
  H 2.557214 0.894972 2.358638
  C 3.159521 -0.232693 -0.801819
  C 4.550637 -0.404259 -0.933666
  C 5.107941 -0.841092 -2.093580
  H 4.503858 -1.078364 -2.954299
  H 6.172359 -0.967171 -2.192500
  H 0.593250 0.624629 1.226839
  H 0.760566 -0.912937 0.364811
  H 0.609969 0.538796 -0.565586
  H 3.870243 1.469459 1.315368
  H 3.901452 -0.166063 1.894066
  H 2.559452 -0.456612 -1.674872
  H 5.191627 -0.189662 -0.090772
 16
 2.082296
  C 1.037276 0.199465 0.344905
  C 2.495443 0.179257 0.351508
  C 3.221499 0.590077 1.556798
  H 2.549134 0.764713 2.391320
  C 3.150708 -0.233883 -0.810754
  C 4.535711 -0.466400 -0.919915
  C 5.109104 -0.832804 -2.100091
  H 4.523193 -0.951113 -2.997293
  H 6.167244 -1.012702 -2.178810
  H 0.578903 0.801147 1.119507
  H 0.897460 -0.862078 0.612854
  H 0.583260 0.316273 -0.633077
  H 3.757677 1.519554 1.350081
  H 3.980511 -0.136202 1.844740
  H 2.562743 -0.376546 -1.707904
  H 5.161986 -0.353891 -0.046572
 16
 12.752984
  C 1.029917 0.317053 0.322283
  C 2.465956 0.175194 0.338829
  C 3.212461 0.546879 1.557604
  H 2.547821 0.681797 2.405941
  C 3.128490 -0.212283 -0.833007
  C 4.510441 -0.468825 -0.922704
  C 5.099578 -0.850733 -2.095535
  H 4.523080 -0.991075 -2.995447
  H 6.161067 -1.012228 -2.165049
  H 0.532292 0.846606 1.119503
  H 1.192862 -0.773659 0.655400
  H 0.515529 0.255683 -0.626678
  H 3.720010 1.495017 1.374178
  H 3.975172 -0.183156 1.816876
  H 2.554751 -0.344540 -1.740351
  H 5.130925 -0.345156 -0.046682
 16
 27.105346
  C 1.021017 0.396498 0.319350
  C 2.421646 0.136046 0.347633
  C 3.207472 0.533451 1.553970
  H 2.559800 0.700327 2.409422
  C 3.103486 -0.234207 -0.842768
  C 4.479764 -0.478727 -0.927573
  C 5.079756 -0.838759 -2.095807
  H 4.514311 -0.957890 -3.004866
  H 6.137630 -1.022519 -2.151094
  H 0.515952 0.850725 1.154952
  H 1.490944 -0.764584 0.615481
  H 0.464404 0.276705 -0.597912
  H 3.729014 1.464180 1.338808
  H 3.951299 -0.211383 1.821871
  H 2.530153 -0.365519 -1.749919
  H 5.094090 -0.362002 -0.047311
 16
 36.183056
  C 1.005704 0.448804 0.316378
  C 2.392567 0.126074 0.362425
  C 3.197776 0.536237 1.569043
  H 2.550986 0.735519 2.417588
  C 3.085276 -0.247724 -0.849144
  C 4.456901 -0.489643 -0.937066
  C 5.053166 -0.844380 -2.107827
  H 4.484859 -0.959878 -3.015416
  H 6.113870 -1.005485 -2.172216
  H 0.508233 0.893962 1.160694
  H 1.787662 -0.872297 0.573638
  H 0.432441 0.295931 -0.583823
  H 3.744976 1.447484 1.339326
  H 3.917457 -0.224389 1.855045
  H 2.506375 -0.364516 -1.754619
  H 5.072692 -0.373777 -0.057763
 16
 38.654565
  C 1.002882 0.488095 0.317703
  C 2.370626 0.096456 0.387111
  C 3.187055 0.540798 1.583313
  H 2.541696 0.745751 2.431407
  C 3.067140 -0.288682 -0.839994
  C 4.440752 -0.508654 -0.942474
  C 5.027365 -0.826508 -2.127037
  H 4.449647 -0.935732 -3.029668
  H 6.090930 -0.960027 -2.209314
  H 0.524773 0.975720 1.148599
  H 2.046539 -0.994941 0.508910
  H 0.417329 0.303026 -0.566877
  H 3.721567 1.454619 1.336031
  H 3.913644 -0.207999 1.881075
  H 2.469754 -0.417080 -1.732723
  H 5.061456 -0.391626 -0.066519
 16
 39.602447
  C 1.009834 0.504031 0.340426
  C 2.355912 0.091454 0.411371
  C 3.180675 0.543185 1.596316
  H 2.543147 0.733046 2.453707
  C 3.040496 -0.323523 -0.824843
  C 4.423780 -0.522799 -0.947559
  C 4.992568 -0.817010 -2.141535
  H 4.401979 -0.942455 -3.033516
  H 6.057722 -0.918068 -2.244333
  H 0.554970 1.036602 1.155650
  H 2.292597 -1.074913 0.359733
  H 0.407628 0.301904 -0.528500
  H 3.694962 1.469336 1.348297
  H 3.925272 -0.192257 1.882106
  H 2.430362 -0.452308 -1.708419
  H 5.053734 -0.398091 -0.079860
 16
 36.590309
  C 1.002556 0.509314 0.380476
  C 2.332294 0.148151 0.433532
  C 3.170157 0.564450 1.605878
  H 2.544646 0.801524 2.460773
  C 2.994312 -0.359578 -0.786224
  C 4.399247 -0.541904 -0.923974
  C 4.966743 -0.795887 -2.120073
  H 4.377564 -0.898798 -3.015975
  H 6.031914 -0.895929 -2.225462
  H 0.547002 1.032965 1.201906
  H 2.444958 -1.098476 0.124051
  H 0.377800 0.289184 -0.467567
  H 3.737505 1.455341 1.343631
  H 3.875256 -0.205734 1.903794
  H 2.387712 -0.448607 -1.679543
  H 5.026598 -0.437615 -0.051354
 16
 28.086737
  C 1.009186 0.506583 0.395608
  C 2.329435 0.186279 0.449339
  C 3.184753 0.580597 1.597476
  H 2.581682 0.906552 2.438366
  C 2.951010 -0.434861 -0.753272
  C 4.378865 -0.576244 -0.911405
  C 4.947888 -0.759474 -2.116071
  H 4.360632 -0.814580 -3.017774
  H 6.013764 -0.847241 -2.226985
  H 0.540679 1.040954 1.205021
  H 2.529418 -1.260206 -0.064255
  H 0.382889 0.258833 -0.443467
  H 3.833332 1.402962 1.294559
  H 3.822547 -0.233180 1.933799
  H 2.352715 -0.450694 -1.659296
  H 5.002719 -0.511546 -0.032829
 16
 19.909860
  C 1.024186 0.502999 0.420229
  C 2.350955 0.214574 0.453289
  C 3.219545 0.600903 1.580891
  H 2.643410 1.044269 2.387230
  C 2.923547 -0.490114 -0.727878
  C 4.368712 -0.600974 -0.896592
  C 4.942958 -0.707432 -2.107326
  H 4.359465 -0.715687 -3.013333
  H 6.010566 -0.775617 -2.220852
  H 0.552178 1.050141 1.218912
  H 2.551604 -1.434662 -0.251083
  H 0.392141 0.221977 -0.405049
  H 3.964574 1.317616 1.233751
  H 3.765142 -0.252083 1.982125
  H 2.356496 -0.385934 -1.650727
  H 4.987344 -0.589473 -0.011633
 16
 16.700128
  C 1.015920 0.447417 0.486512
  C 2.360996 0.235908 0.449985
  C 3.245459 0.639782 1.553891
  H 2.697698 1.152299 2.338507
  C 2.902830 -0.472840 -0.734338
  C 4.357335 -0.620408 -0.879631
  C 4.950427 -0.729134 -2.079500
  H 4.386622 -0.705723 -2.997823
  H 6.017587 -0.827688 -2.173987
  H 0.547733 0.941782 1.320826
  H 2.472235 -1.478446 -0.545772
  H 0.366182 0.147615 -0.318535
  H 4.039608 1.284950 1.175485
  H 3.741120 -0.227421 1.993026
  H 2.422828 -0.166130 -1.668339
  H 4.959422 -0.649892 0.016147
 16
 16.821361
  C 0.996449 0.350555 0.562729
  C 2.357392 0.248977 0.447955
  C 3.260284 0.701547 1.518847
  H 2.723437 1.221661 2.306292
  C 2.888568 -0.394988 -0.771631
  C 4.335750 -0.655195 -0.864023
  C 4.975209 -0.793577 -2.047512
  H 4.463100 -0.686491 -2.990658
  H 6.031534 -0.995182 -2.097212
  H 0.538588 0.682082 1.480709
  H 2.349418 -1.361603 -0.813037
  H 0.326999 0.102479 -0.244826
  H 4.036846 1.346729 1.105942
  H 3.781907 -0.148210 1.965336
  H 2.523567 0.106592 -1.677770
  H 4.894955 -0.753306 0.055312
 16
 15.723807
  C 1.000342 0.382998 0.552392
  C 2.350255 0.213909 0.465342
  C 3.251099 0.652937 1.543616
  H 2.716247 1.193115 2.318328
  C 2.895073 -0.416404 -0.756782
  C 4.350599 -0.607904 -0.870776
  C 4.958687 -0.782442 -2.056055
  H 4.414744 -0.759506 -2.986199
  H 6.021535 -0.940865 -2.126214
  H 0.551490 0.884300 1.391072
  H 2.410612 -1.407143 -0.849062
  H 0.331233 0.031636 -0.215577
  H 4.050229 1.275904 1.140473
  H 3.738790 -0.208494 2.004494
  H 2.503267 0.089654 -1.652487
  H 4.939799 -0.629626 0.033888
