 23
 0.000000
  H 1.441803 0.174848 0.485846
  C 2.519508 0.143115 0.406629
  C 3.284638 0.622701 1.600663
  H 2.603107 0.937549 2.384731
  C 3.043352 -0.314272 -0.732456
  C 4.454188 -0.423855 -1.005646
  C 5.085006 -0.864852 -2.104680
  C 4.609040 -1.395219 -3.426342
  C 3.121320 -1.512048 -3.718273
  C 2.903213 -2.074406 -5.119957
  O 6.461065 -0.881310 -2.145882
  H 3.925151 1.463510 1.340581
  H 3.925269 -0.164370 1.994356
  H 2.363041 -0.625854 -1.508248
  H 5.096150 -0.097982 -0.193717
  H 5.069982 -2.382049 -3.539746
  H 5.070341 -0.760741 -4.190419
  H 2.650598 -0.529364 -3.655399
  H 2.650258 -2.178596 -2.993682
  H 3.351532 -1.423995 -5.867915
  H 1.840453 -2.160162 -5.334243
  H 3.351172 -3.061576 -5.210844
  H 6.833378 -0.549586 -1.319112
 23
 0.175292
  H 1.451136 0.423002 0.455018
  C 2.510335 0.225805 0.376571
  C 3.305798 0.495883 1.616483
  H 2.656733 0.830068 2.420493
  C 3.007923 -0.193868 -0.791112
  C 4.414903 -0.395801 -1.027877
  C 5.070582 -0.818094 -2.119314
  C 4.615264 -1.350055 -3.449248
  C 3.125206 -1.526834 -3.713868
  C 2.900830 -2.161108 -5.082424
  O 6.445766 -0.830757 -2.108170
  H 4.053779 1.269259 1.441791
  H 3.824737 -0.402635 1.948888
  H 2.324687 -0.361154 -1.606928
  H 5.044497 -0.123806 -0.186120
  H 5.113567 -2.319193 -3.567318
  H 5.041830 -0.693889 -4.216689
  H 2.626143 -0.557613 -3.690136
  H 2.687159 -2.166375 -2.946665
  H 3.323561 -1.537139 -5.867718
  H 1.837014 -2.282183 -5.276381
  H 3.371988 -3.140984 -5.133240
  H 6.766977 -0.406249 -1.302998
 23
 2.253227
  H 1.490166 0.559889 0.529923
  C 2.518904 0.265655 0.378685
  C 3.379487 0.488518 1.589947
  H 2.782336 0.880130 2.409282
  C 2.948523 -0.198404 -0.797552
  C 4.345131 -0.454527 -1.028456
  C 5.037970 -0.826916 -2.114730
  C 4.631439 -1.342970 -3.462309
  C 3.148149 -1.567345 -3.723358
  C 2.931834 -2.169592 -5.107527
  O 6.412705 -0.771558 -2.036764
  H 4.176424 1.203791 1.383057
  H 3.839549 -0.441830 1.923417
  H 2.245918 -0.330945 -1.602274
  H 4.953528 -0.308396 -0.141151
  H 5.166393 -2.290702 -3.588106
  H 5.035536 -0.661948 -4.218771
  H 2.615708 -0.617369 -3.663796
  H 2.740904 -2.241433 -2.967801
  H 3.329959 -1.512037 -5.877435
  H 1.871202 -2.316362 -5.297785
  H 3.430580 -3.132989 -5.188968
  H 6.624211 -0.266722 -1.240107
 23
 6.969197
  H 1.564677 0.773801 0.452339
  C 2.557225 0.365704 0.346469
  C 3.346748 0.299294 1.617554
  H 2.755980 0.672597 2.448008
  C 2.996941 -0.007942 -0.858548
  C 4.369313 -0.363968 -1.067256
  C 5.052335 -0.710333 -2.174647
  C 4.641919 -1.298270 -3.489700
  C 3.156025 -1.558292 -3.704091
  C 2.916061 -2.279713 -5.026647
  O 6.424137 -0.586309 -2.098125
  H 4.255838 0.896174 1.550593
  H 3.632467 -0.725767 1.846765
  H 2.332924 0.041621 -1.705451
  H 4.934917 -0.446740 -0.144848
  H 5.195084 -2.242256 -3.565743
  H 5.021259 -0.664171 -4.299592
  H 2.622386 -0.607393 -3.722300
  H 2.759934 -2.149892 -2.876857
  H 3.316831 -1.698111 -5.855866
  H 1.851122 -2.430317 -5.193663
  H 3.406708 -3.252525 -5.028232
  H 6.560608 -0.078698 -1.286274
 23
 16.684767
  H 1.636328 0.881117 0.503238
  C 2.608887 0.423778 0.387113
  C 3.426025 0.361401 1.641616
  H 2.878018 0.803210 2.466558
  C 2.996255 -0.019352 -0.818029
  C 4.333988 -0.478292 -1.040326
  C 5.017241 -0.730390 -2.185277
  C 4.630099 -1.282027 -3.522971
  C 3.164236 -1.651098 -3.714295
  C 2.921120 -2.252600 -5.094109
  O 6.379563 -0.497600 -2.072552
  H 4.363269 0.904022 1.532221
  H 3.656055 -0.671263 1.911002
  H 2.300077 -0.007523 -1.641622
  H 4.850553 -0.773418 -0.133115
  H 5.260767 -2.166186 -3.662809
  H 4.940480 -0.586987 -4.313107
  H 2.556510 -0.749195 -3.611292
  H 2.840834 -2.337985 -2.926127
  H 3.279037 -1.580762 -5.873215
  H 1.860819 -2.430807 -5.249086
  H 3.444541 -3.201847 -5.197173
  H 6.372652 -0.008765 -1.225277
 23
 29.312226
  H 1.642081 0.878570 0.499977
  C 2.612528 0.435690 0.356301
  C 3.419080 0.270758 1.610249
  H 2.836323 0.592003 2.469630
  C 3.021693 0.127895 -0.876340
  C 4.341703 -0.357242 -1.074801
  C 5.045022 -0.733171 -2.190104
  C 4.654245 -1.285257 -3.520910
  C 3.176992 -1.638615 -3.689375
  C 2.942144 -2.293708 -5.052670
  O 6.396428 -0.473911 -1.992176
  H 4.320937 0.867624 1.574883
  H 3.709170 -0.761897 1.769972
  H 2.397189 0.357383 -1.742121
  H 4.772000 -0.762624 -0.161480
  H 5.257596 -2.202034 -3.622825
  H 4.967195 -0.581491 -4.309885
  H 2.547120 -0.737632 -3.650195
  H 2.886684 -2.359076 -2.915637
  H 3.213322 -1.621455 -5.862597
  H 1.895423 -2.560728 -5.171481
  H 3.538771 -3.203990 -5.142334
  H 6.204840 -0.017671 -1.163385
 23
 55.004027
  H 1.668500 0.871159 0.396334
  C 2.649409 0.426393 0.310177
  C 3.383508 0.220199 1.601636
  H 2.769335 0.525306 2.444161
  C 3.158657 0.147382 -0.892440
  C 4.504289 -0.347672 -1.087484
  C 5.169691 -0.733538 -2.271946
  C 4.708725 -1.318246 -3.560623
  C 3.223963 -1.645640 -3.672169
  C 2.918125 -2.325782 -5.001330
  O 6.432905 -0.506248 -2.112494
  H 4.306408 0.802064 1.622319
  H 3.648839 -0.829224 1.741245
  H 2.570207 0.351352 -1.773867
  H 4.884352 -0.889170 -0.220347
  H 5.297861 -2.234686 -3.693222
  H 5.009284 -0.648913 -4.373811
  H 2.636688 -0.731004 -3.599219
  H 2.932134 -2.300884 -2.849444
  H 3.207795 -1.687265 -5.833258
  H 1.855240 -2.535573 -5.085303
  H 3.460134 -3.265081 -5.086502
  H 5.921876 0.094668 -0.982848
 23
 28.005187
  H 1.684955 0.861091 0.180393
  C 2.680743 0.433214 0.209050
  C 3.257905 0.180977 1.564595
  H 2.552515 0.443691 2.347752
  C 3.334051 0.192655 -0.920502
  C 4.736036 -0.320237 -1.069688
  C 5.365950 -0.729574 -2.368630
  C 4.752382 -1.370049 -3.584197
  C 3.248550 -1.672672 -3.562516
  C 2.834169 -2.266521 -4.899225
  O 6.545243 -0.501419 -2.326338
  H 4.133500 0.810284 1.731998
  H 3.532153 -0.869252 1.676749
  H 2.855030 0.470671 -1.859893
  H 5.115350 -0.916136 -0.225461
  H 5.307502 -2.295880 -3.783122
  H 4.981241 -0.744969 -4.447696
  H 2.759233 -0.713187 -3.460856
  H 2.985854 -2.337266 -2.741341
  H 3.135979 -1.614369 -5.708002
  H 1.756903 -2.390807 -4.944275
  H 3.307001 -3.229429 -5.063565
  H 5.693738 0.303366 -0.909003
 23
 8.491123
  H 1.757025 1.006275 0.014140
  C 2.715784 0.504926 0.116911
  C 3.156237 0.158478 1.499257
  H 2.402513 0.437570 2.231425
  C 3.440290 0.283550 -0.978436
  C 4.797798 -0.356210 -1.048046
  C 5.421806 -0.728027 -2.361326
  C 4.709958 -1.209454 -3.604154
  C 3.247517 -1.616226 -3.503343
  C 2.773767 -2.300146 -4.782426
  O 6.629659 -0.623300 -2.351927
  H 4.091476 0.664795 1.738239
  H 3.331399 -0.913915 1.590469
  H 3.036669 0.623264 -1.927310
  H 4.950149 -1.134963 -0.276857
  H 5.271793 -2.107412 -3.871358
  H 4.877280 -0.492976 -4.407430
  H 2.585740 -0.786013 -3.282590
  H 3.120535 -2.316428 -2.668561
  H 2.854966 -1.626837 -5.635137
  H 1.734774 -2.608901 -4.684526
  H 3.373152 -3.182798 -4.988099
  H 5.663547 0.250991 -0.713698
 23
 1.155240
  H 1.715300 0.894647 0.078657
  C 2.708652 0.463768 0.121604
  C 3.228417 0.149393 1.482972
  H 2.476603 0.346717 2.242863
  C 3.405756 0.287045 -0.992455
  C 4.801608 -0.258361 -1.057791
  C 5.438464 -0.672530 -2.366651
  C 4.719120 -1.280327 -3.560414
  C 3.232990 -1.606932 -3.507447
  C 2.808377 -2.356026 -4.763589
  O 6.631482 -0.496808 -2.445108
  H 4.113836 0.751694 1.699935
  H 3.518739 -0.896756 1.553788
  H 2.964958 0.585543 -1.928960
  H 4.938126 -1.078012 -0.348878
  H 5.270718 -2.210808 -3.762483
  H 4.924241 -0.616668 -4.407240
  H 2.633913 -0.713418 -3.422200
  H 3.026071 -2.227518 -2.633164
  H 2.989219 -1.749335 -5.647481
  H 1.753499 -2.595923 -4.721815
  H 3.365464 -3.287698 -4.867311
  H 5.526302 0.475206 -0.712208
 23
 1.326836
  H 1.652815 0.639202 0.279600
  C 2.697945 0.371862 0.237327
  C 3.438340 0.400680 1.537437
  H 2.776802 0.661476 2.358007
  C 3.247682 0.036313 -0.922173
  C 4.694369 -0.325723 -1.027887
  C 5.383514 -0.737902 -2.312382
  C 4.715990 -1.336464 -3.534638
  C 3.211957 -1.553267 -3.638357
  C 2.880919 -2.305492 -4.924694
  O 6.594858 -0.659502 -2.326613
  H 4.247499 1.130492 1.500405
  H 3.887114 -0.570533 1.749070
  H 2.644928 0.046157 -1.811697
  H 4.894135 -1.166343 -0.348754
  H 5.212711 -2.305766 -3.659482
  H 5.050632 -0.728362 -4.381360
  H 2.687959 -0.596752 -3.659634
  H 2.855618 -2.133846 -2.785390
  H 3.210965 -1.740945 -5.793901
  H 1.808035 -2.464509 -5.006218
  H 3.372449 -3.275952 -4.940822
  H 5.300017 0.502795 -0.642675
 23
 2.480476
  H 1.595043 0.190053 0.494538
  C 2.667105 0.153340 0.361352
  C 3.486381 0.743066 1.465642
  H 2.851164 1.120298 2.261984
  C 3.173446 -0.415215 -0.725826
  C 4.652397 -0.505281 -0.930162
  C 5.348386 -0.950257 -2.203654
  C 4.699600 -1.458793 -3.479837
  C 3.193391 -1.537329 -3.690915
  C 2.891349 -2.048502 -5.097391
  O 6.560405 -0.904037 -2.195264
  H 4.097169 1.566749 1.094411
  H 4.163093 -0.001080 1.885691
  H 2.504947 -0.813155 -1.464087
  H 5.058042 -1.176790 -0.160982
  H 5.127729 -2.456349 -3.630366
  H 5.129044 -0.835121 -4.271730
  H 2.745143 -0.549263 -3.574538
  H 2.746078 -2.223507 -2.969800
  H 3.305966 -1.377678 -5.846755
  H 1.817379 -2.114467 -5.254997
  H 3.321311 -3.036413 -5.247464
  H 5.084140 0.476554 -0.707468
