 20
 0.000000
  C 0.992835 0.118562 0.345409
  C 2.466405 0.118068 0.345760
  C 3.190943 0.598426 1.539893
  H 2.502848 0.912556 2.320319
  C 3.125251 -0.339890 -0.792795
  C 4.510765 -0.398580 -0.940906
  C 5.184944 -0.853173 -2.075704
  C 4.540609 -1.347395 -3.308699
  H 3.459467 -1.326119 -3.256209
  O 6.493180 -0.868949 -2.116585
  H 0.580261 0.493222 1.276005
  H 0.614961 -0.889116 0.167613
  H 0.615810 0.722814 -0.480769
  H 3.839965 1.437101 1.284884
  H 3.839757 -0.183128 1.936905
  H 2.505444 -0.670195 -1.614302
  H 5.126005 -0.067472 -0.116436
  H 4.882840 -2.362887 -3.508634
  H 4.883245 -0.751397 -4.154758
  H 6.930578 -0.544247 -1.306292
 20
 -0.610890
  C 1.003449 0.167332 0.299086
  C 2.477363 0.134203 0.329881
  C 3.189355 0.584907 1.540986
  H 2.503360 0.977740 2.284498
  C 3.145607 -0.329562 -0.795395
  C 4.531128 -0.422149 -0.917552
  C 5.195484 -0.889450 -2.049939
  C 4.523765 -1.396739 -3.265937
  H 3.576721 -1.875353 -3.045492
  O 6.502820 -0.892575 -2.119316
  H 0.577483 0.520905 1.232178
  H 0.605709 -0.823777 0.076278
  H 0.660242 0.810161 -0.513434
  H 3.923359 1.352906 1.298759
  H 3.740159 -0.245329 1.985474
  H 2.536169 -0.629582 -1.635059
  H 5.140676 -0.099462 -0.084751
  H 5.185066 -2.090404 -3.779292
  H 4.338344 -0.564371 -3.946636
  H 6.961618 -0.544365 -1.331455
 20
 0.033509
  C 1.017321 0.275601 0.238985
  C 2.482874 0.158669 0.312303
  C 3.178192 0.518397 1.566471
  H 2.495098 0.948944 2.291728
  C 3.158957 -0.299708 -0.808899
  C 4.541432 -0.449350 -0.903567
  C 5.205875 -0.900147 -2.042746
  C 4.516488 -1.495059 -3.208893
  H 3.986055 -2.396804 -2.912902
  O 6.493299 -0.724466 -2.199672
  H 0.577598 0.556508 1.189026
  H 0.574576 -0.655752 -0.102006
  H 0.743333 1.024111 -0.508893
  H 3.989154 1.224440 1.381744
  H 3.632209 -0.373411 2.010742
  H 2.562157 -0.544620 -1.673364
  H 5.146940 -0.160862 -0.056445
  H 5.246068 -1.738235 -3.976057
  H 3.782601 -0.804346 -3.620876
  H 6.977935 -0.418054 -1.410405
 20
 9.681315
  C 1.017295 0.412330 0.203334
  C 2.473593 0.196498 0.299994
  C 3.142570 0.338033 1.607233
  H 2.461467 0.711539 2.365471
  C 3.159706 -0.160407 -0.852250
  C 4.534038 -0.355118 -0.933716
  C 5.224946 -0.881933 -2.030724
  C 4.545806 -1.666953 -3.083555
  H 4.252297 -2.637624 -2.685163
  O 6.386183 -0.375826 -2.391112
  H 0.566108 0.620501 1.167865
  H 0.528377 -0.455991 -0.239194
  H 0.810471 1.244799 -0.470828
  H 3.998922 1.008708 1.540677
  H 3.526068 -0.628393 1.938088
  H 2.577305 -0.267889 -1.755033
  H 5.127039 -0.076946 -0.070235
  H 5.213182 -1.808876 -3.928642
  H 3.632172 -1.179117 -3.416884
  H 7.061815 -0.232634 -1.705011
 20
 28.131063
  C 1.017930 0.515543 0.181770
  C 2.459597 0.226388 0.293108
  C 3.095610 0.212029 1.626296
  H 2.410085 0.551721 2.397314
  C 3.163914 -0.052807 -0.866558
  C 4.526662 -0.315436 -0.932437
  C 5.245168 -0.925473 -1.980689
  C 4.593752 -1.788038 -2.981804
  H 4.463293 -2.800504 -2.591267
  O 6.186362 -0.103903 -2.479703
  H 0.549510 0.642476 1.154917
  H 0.502876 -0.284001 -0.352028
  H 0.865119 1.422864 -0.406892
  H 3.984130 0.843670 1.644203
  H 3.421360 -0.801409 1.879556
  H 2.613800 -0.046776 -1.798951
  H 5.104684 -0.058522 -0.050256
  H 5.185930 -1.826899 -3.891557
  H 3.594659 -1.419333 -3.205701
  H 7.075101 -0.068215 -2.090088
 20
 63.374388
  C 1.074275 0.583969 0.169666
  C 2.511247 0.246095 0.280177
  C 3.095991 0.059291 1.629146
  H 2.381681 0.321722 2.404892
  C 3.253132 0.087324 -0.881442
  C 4.602801 -0.246047 -0.937442
  C 5.228666 -1.073684 -1.926560
  C 4.649885 -1.946006 -2.928178
  H 4.632627 -2.965624 -2.564545
  O 5.802833 0.134133 -2.458533
  H 0.594172 0.610020 1.149057
  H 0.551651 -0.141531 -0.439021
  H 0.949950 1.555093 -0.311112
  H 3.989835 0.675025 1.771700
  H 3.393927 -0.979309 1.768653
  H 2.740865 0.193824 -1.833498
  H 5.184678 -0.028982 -0.050828
  H 5.225948 -1.904015 -3.860509
  H 3.613112 -1.675082 -3.136117
  H 6.737802 0.301134 -2.279377
 20
 64.189159
  C 1.125365 0.610452 0.151522
  C 2.573134 0.236517 0.213007
  C 3.156016 -0.126979 1.539735
  H 2.437587 0.032795 2.338814
  C 3.295416 0.229793 -0.912037
  C 4.722351 -0.113649 -0.973406
  C 5.199726 -1.103169 -1.912093
  C 4.636289 -2.026294 -2.882942
  H 4.748298 -3.046305 -2.522202
  O 5.395180 0.307071 -2.232555
  H 0.652578 0.531377 1.126056
  H 0.591450 -0.034517 -0.544318
  H 1.012123 1.633271 -0.202482
  H 4.040069 0.471157 1.755802
  H 3.451761 -1.175013 1.552381
  H 2.833849 0.450162 -1.862012
  H 5.305190 0.083473 -0.080332
  H 5.147805 -1.924734 -3.836006
  H 3.565103 -1.854794 -3.042539
  H 6.320431 0.625700 -2.110812
 20
 72.101633
  C 1.106954 0.548482 0.206847
  C 2.564969 0.218526 0.196945
  C 3.198756 -0.258659 1.461669
  H 2.487421 -0.259180 2.281411
  C 3.266243 0.369284 -0.933990
  C 4.716551 0.085973 -1.043652
  C 5.056004 -1.145358 -1.719254
  C 4.648962 -2.011729 -2.789334
  H 4.551751 -3.026369 -2.400172
  O 5.317409 0.377750 -2.303321
  H 0.663737 0.358024 1.178918
  H 0.577169 -0.041438 -0.538448
  H 0.951435 1.597509 -0.041672
  H 4.035134 0.382216 1.739115
  H 3.584509 -1.268703 1.340670
  H 2.787668 0.653507 -1.858870
  H 5.288644 0.379951 -0.166329
  H 5.430305 -2.039000 -3.548306
  H 3.708894 -1.718683 -3.268327
  H 6.270237 0.602834 -2.230192
 20
 81.046024
  C 1.188586 0.574713 0.067489
  C 2.634691 0.198817 0.100901
  C 3.200679 -0.354395 1.366281
  H 2.455500 -0.372381 2.155161
  C 3.386524 0.393745 -0.993119
  C 4.852962 0.097944 -1.073557
  C 4.912528 -1.288037 -1.526544
  C 4.395303 -2.031244 -2.580099
  H 4.082492 -3.013006 -2.199376
  O 5.448756 0.678598 -2.220316
  H 0.698882 0.351775 1.009986
  H 0.675151 0.039792 -0.729044
  H 1.074324 1.638563 -0.134726
  H 4.039284 0.253837 1.703854
  H 3.570253 -1.367270 1.219566
  H 2.962480 0.728944 -1.926726
  H 5.399227 0.308359 -0.152129
  H 5.236154 -2.298522 -3.238914
  H 3.600444 -1.568310 -3.176801
  H 6.397783 0.830074 -2.098503
 20
 60.581241
  C 1.310458 0.478679 -0.145138
  C 2.733493 0.131760 0.005869
  C 3.217035 -0.406088 1.289493
  H 2.423498 -0.449003 2.029534
  C 3.578683 0.326591 -1.068687
  C 5.070887 0.137292 -1.008681
  C 4.501060 -1.135438 -1.335307
  C 3.980463 -1.883939 -2.448326
  H 3.141707 -2.507903 -2.129641
  O 5.859895 0.728616 -1.984105
  H 0.739650 0.259017 0.751765
  H 0.874228 -0.061024 -0.985540
  H 1.206709 1.538462 -0.381252
  H 4.027724 0.211414 1.678618
  H 3.629849 -1.407151 1.156566
  H 3.193698 0.705990 -2.004037
  H 5.505049 0.233039 -0.011318
  H 4.751557 -2.575218 -2.801946
  H 3.660720 -1.256630 -3.283794
  H 6.792032 0.736342 -1.730632
 20
 49.179221
  C 1.303110 0.655826 -0.009806
  C 2.657211 0.099528 0.072628
  C 3.173066 -0.409881 1.343774
  H 2.444056 -0.324796 2.143096
  C 3.432524 0.043703 -1.100608
  C 5.016365 0.024924 -1.034825
  C 4.340334 -1.181842 -1.376753
  C 4.208595 -1.986962 -2.581249
  H 3.282532 -2.558314 -2.567105
  O 5.731131 0.684795 -2.007128
  H 0.780404 0.610238 0.939845
  H 0.724011 0.127932 -0.767227
  H 1.341464 1.693292 -0.348831
  H 4.081740 0.117986 1.641796
  H 3.469656 -1.453818 1.226130
  H 2.988913 0.445230 -2.006443
  H 5.370825 0.184476 -0.020947
  H 5.049718 -2.675554 -2.662337
  H 4.205887 -1.356040 -3.476864
  H 6.645569 0.848030 -1.738439
 20
 43.608313
  C 1.158870 0.618260 0.093118
  C 2.530721 0.051711 0.072481
  C 3.174943 -0.321973 1.351135
  H 2.516600 -0.132381 2.196588
  C 3.136858 -0.138621 -1.150215
  C 5.201423 0.020009 -1.148869
  C 4.314357 -0.987390 -1.448566
  C 4.277303 -1.835631 -2.648463
  H 3.282840 -2.244242 -2.802990
  O 6.093852 0.450597 -2.026047
  H 0.761286 0.677079 1.097219
  H 0.488307 0.015512 -0.518877
  H 1.152229 1.614958 -0.351886
  H 4.099266 0.226389 1.511072
  H 3.446786 -1.376852 1.340552
  H 2.591445 0.145983 -2.042012
  H 5.389378 0.307410 -0.121870
  H 4.990802 -2.647117 -2.544471
  H 4.573721 -1.267966 -3.536625
  H 6.986291 0.617410 -1.682838
 20
 19.160876
  C 1.047820 0.483146 0.164977
  C 2.448658 -0.000735 0.096943
  C 3.201232 -0.152191 1.365900
  H 2.574568 0.073466 2.221024
  C 2.941677 -0.345051 -1.138668
  C 5.320546 -0.035704 -1.157646
  C 4.237257 -0.803400 -1.553515
  C 4.332360 -1.625661 -2.785439
  H 3.356409 -1.917471 -3.150775
  O 6.336428 0.175161 -1.950196
  H 0.736476 0.696771 1.180581
  H 0.366262 -0.251602 -0.263267
  H 0.934152 1.385579 -0.437543
  H 4.058913 0.513531 1.399846
  H 3.584728 -1.169364 1.467616
  H 2.233886 -0.294712 -1.959791
  H 5.382607 0.358846 -0.147857
  H 4.902781 -2.524411 -2.561149
  H 4.881820 -1.099753 -3.567516
  H 7.209850 0.310640 -1.541855
 20
 9.373143
  C 0.995090 0.278964 0.211702
  C 2.440927 -0.014087 0.094037
  C 3.273236 0.109046 1.309203
  H 2.654089 0.233013 2.192671
  C 2.893966 -0.441871 -1.137964
  C 5.339606 -0.140512 -1.091863
  C 4.190160 -0.717504 -1.624364
  C 4.332369 -1.473434 -2.901150
  H 3.382016 -1.603121 -3.406756
  O 6.451407 -0.139194 -1.775288
  H 0.720002 0.607748 1.208151
  H 0.408354 -0.605330 -0.039540
  H 0.703630 1.043113 -0.509841
  H 3.916778 0.986075 1.242212
  H 3.910266 -0.763763 1.440575
  H 2.116086 -0.591321 -1.877569
  H 5.325385 0.342965 -0.125344
  H 4.743713 -2.459729 -2.683713
  H 5.039010 -0.981047 -3.566470
  H 7.252341 0.107073 -1.277021
 20
 7.655613
  C 0.985701 0.041056 0.278686
  C 2.453262 -0.024585 0.106699
  C 3.294403 0.449027 1.222507
  H 2.681016 0.737485 2.069269
  C 2.902912 -0.513404 -1.108893
  C 5.371309 -0.355397 -1.005193
  C 4.188352 -0.695495 -1.652611
  C 4.293832 -1.235564 -3.033670
  H 3.380190 -1.077119 -3.597360
  O 6.523674 -0.559390 -1.580897
  H 0.696099 0.475163 1.229484
  H 0.553235 -0.957250 0.204767
  H 0.531540 0.617866 -0.527662
  H 3.877594 1.317718 0.922913
  H 3.981838 -0.327048 1.551302
  H 2.096360 -0.809432 -1.770908
  H 5.352754 0.075073 -0.016787
  H 4.489541 -2.308196 -2.997270
  H 5.135472 -0.784084 -3.554417
  H 7.299348 -0.289339 -1.058290
