 23
 0.000000
  C 1.013781 0.149226 0.383636
  C 2.490013 0.157940 0.393401
  C 3.240406 0.611950 1.577105
  H 2.613245 0.927142 2.401327
  C 3.111156 -0.287868 -0.763812
  C 4.480953 -0.390863 -0.999941
  C 5.139995 -0.863937 -2.129577
  C 4.619902 -1.400067 -3.417028
  C 3.125879 -1.505638 -3.683058
  H 2.969545 -1.919408 -4.673006
  O 6.460751 -0.871533 -2.135385
  H 0.582288 0.500424 1.316051
  H 0.644704 -0.860976 0.186885
  H 0.641610 0.776473 -0.427441
  H 3.893319 1.441693 1.298579
  H 3.894444 -0.190628 1.923980
  H 2.442628 -0.596063 -1.550590
  H 5.124065 -0.056873 -0.192536
  H 5.070327 -2.392326 -3.533500
  H 5.076457 -0.788964 -4.203892
  H 2.653354 -0.527153 -3.651573
  H 2.647089 -2.166607 -2.965005
  H 6.864055 -0.530934 -1.314927
 23
 -0.628134
  C 1.003669 0.160358 0.449801
  C 2.475534 0.158533 0.368867
  C 3.263049 0.600699 1.537261
  H 2.621022 0.911084 2.355996
  C 3.061750 -0.303291 -0.805609
  C 4.436449 -0.406553 -1.004945
  C 5.128116 -0.872595 -2.118723
  C 4.636418 -1.390558 -3.425699
  C 3.148765 -1.475481 -3.727076
  H 3.026744 -1.874889 -4.732111
  O 6.448277 -0.890066 -2.085372
  H 0.635677 0.722756 1.301953
  H 0.659227 -0.870455 0.548760
  H 0.553979 0.538510 -0.467575
  H 3.911056 1.436542 1.268095
  H 3.913017 -0.199597 1.889532
  H 2.390552 -0.604721 -1.592180
  H 5.064807 -0.081932 -0.183516
  H 5.084286 -2.383467 -3.540607
  H 5.124917 -0.776115 -4.192704
  H 2.681840 -0.496992 -3.707129
  H 2.640241 -2.150820 -3.043655
  H 6.843089 -0.563487 -1.253993
 23
 0.931442
  C 1.008477 0.126314 0.467246
  C 2.474125 0.150443 0.365614
  C 3.255106 0.684081 1.499419
  H 2.609197 0.964037 2.325596
  C 3.055478 -0.318473 -0.804433
  C 4.429772 -0.475956 -0.981805
  C 5.123088 -0.932395 -2.098609
  C 4.636182 -1.376384 -3.434676
  C 3.152637 -1.376275 -3.765960
  H 3.031819 -1.728506 -4.787868
  O 6.440764 -1.002969 -2.044969
  H 0.594041 0.813309 1.194218
  H 0.890477 -0.890632 0.874980
  H 0.492191 0.134583 -0.485606
  H 3.806875 1.569087 1.180733
  H 3.987559 -0.037832 1.857639
  H 2.389351 -0.580255 -1.606955
  H 5.055110 -0.201077 -0.140589
  H 5.037857 -2.385531 -3.580127
  H 5.167993 -0.756335 -4.165430
  H 2.732630 -0.376113 -3.713351
  H 2.599174 -2.053039 -3.121273
  H 6.829588 -0.736111 -1.190612
 23
 12.738175
  C 0.997985 0.225786 0.452314
  C 2.449036 0.129269 0.367161
  C 3.258845 0.632389 1.505543
  H 2.625340 0.943469 2.329978
  C 3.032964 -0.293740 -0.823173
  C 4.405784 -0.481740 -0.980758
  C 5.106356 -0.912452 -2.098976
  C 4.633432 -1.384764 -3.431007
  C 3.152816 -1.379246 -3.775923
  H 3.036079 -1.773861 -4.782690
  O 6.427715 -0.973540 -2.041744
  H 0.548952 0.792968 1.251758
  H 1.170571 -0.833799 0.842834
  H 0.430028 0.111292 -0.459081
  H 3.836631 1.495700 1.177738
  H 3.958273 -0.117058 1.871831
  H 2.377747 -0.477817 -1.655406
  H 5.024667 -0.244503 -0.123547
  H 5.027200 -2.401042 -3.547202
  H 5.176052 -0.784854 -4.168993
  H 2.746951 -0.372634 -3.769629
  H 2.585369 -2.021103 -3.107098
  H 6.804527 -0.669001 -1.198833
 23
 31.249826
  C 0.986722 0.287584 0.455349
  C 2.407505 0.104725 0.380368
  C 3.252316 0.625558 1.503478
  H 2.635012 0.972180 2.326693
  C 3.010750 -0.292929 -0.832840
  C 4.382129 -0.462692 -0.989719
  C 5.085089 -0.915027 -2.092055
  C 4.624863 -1.379339 -3.435416
  C 3.146948 -1.372043 -3.791620
  H 3.040366 -1.737840 -4.810392
  O 6.415507 -0.992298 -2.022296
  H 0.526185 0.761740 1.303158
  H 1.536918 -0.826973 0.786187
  H 0.371924 0.084609 -0.406605
  H 3.840678 1.467095 1.145892
  H 3.935688 -0.130639 1.882561
  H 2.355083 -0.502198 -1.658396
  H 4.999666 -0.211109 -0.136191
  H 5.018845 -2.394729 -3.554541
  H 5.173398 -0.774220 -4.165520
  H 2.736454 -0.367021 -3.759446
  H 2.578529 -2.035329 -3.146465
  H 6.780462 -0.699156 -1.169282
 23
 40.691486
  C 0.965928 0.351809 0.444694
  C 2.376815 0.084338 0.410369
  C 3.237356 0.623487 1.529605
  H 2.621274 1.004592 2.338139
  C 2.999764 -0.317812 -0.829971
  C 4.362593 -0.479032 -0.984631
  C 5.069249 -0.923455 -2.092634
  C 4.607982 -1.379692 -3.437620
  C 3.128546 -1.381819 -3.788143
  H 3.021183 -1.743315 -4.808356
  O 6.398708 -0.979679 -2.028805
  H 0.510397 0.812351 1.301280
  H 1.838678 -0.911017 0.733192
  H 0.341136 0.117286 -0.399389
  H 3.845315 1.443017 1.155630
  H 3.898900 -0.137675 1.933544
  H 2.336729 -0.519360 -1.651639
  H 4.979898 -0.217353 -0.133921
  H 5.010939 -2.390364 -3.567517
  H 5.148572 -0.763620 -4.164827
  H 2.711162 -0.379865 -3.749109
  H 2.566661 -2.052816 -3.145227
  H 6.763512 -0.698049 -1.171028
 23
 41.784591
  C 0.966271 0.383499 0.441005
  C 2.364544 0.072448 0.430031
  C 3.231101 0.630208 1.544590
  H 2.611752 1.045756 2.332932
  C 3.001094 -0.332195 -0.831226
  C 4.358984 -0.482841 -0.985988
  C 5.065603 -0.918454 -2.102747
  C 4.595123 -1.372482 -3.443132
  C 3.113737 -1.379984 -3.785144
  H 3.002406 -1.735151 -4.807027
  O 6.387728 -0.963381 -2.046130
  H 0.519966 0.875701 1.283685
  H 2.141962 -1.028381 0.611443
  H 0.335616 0.118495 -0.387914
  H 3.858739 1.429371 1.158461
  H 3.870053 -0.131292 1.980930
  H 2.335122 -0.511669 -1.656125
  H 4.976132 -0.228337 -0.132479
  H 5.000427 -2.381584 -3.576524
  H 5.129636 -0.755002 -4.173152
  H 2.690041 -0.380897 -3.740111
  H 2.559288 -2.057941 -3.143075
  H 6.761058 -0.677384 -1.192554
 23
 43.765646
  C 0.978331 0.388068 0.460879
  C 2.351629 0.102498 0.440025
  C 3.224565 0.641508 1.552127
  H 2.610206 1.066627 2.340727
  C 2.983473 -0.356786 -0.817569
  C 4.354699 -0.497199 -0.979703
  C 5.054765 -0.918420 -2.097241
  C 4.579977 -1.364715 -3.440573
  C 3.096891 -1.376538 -3.775282
  H 2.983110 -1.719464 -4.801245
  O 6.380664 -0.958634 -2.050254
  H 0.533583 0.918024 1.281926
  H 2.385571 -1.078254 0.378237
  H 0.333192 0.093728 -0.347028
  H 3.867043 1.431083 1.167862
  H 3.850287 -0.129798 1.992490
  H 2.313962 -0.520852 -1.643595
  H 4.969846 -0.246558 -0.123931
  H 4.989239 -2.370930 -3.582468
  H 5.107601 -0.738824 -4.168175
  H 2.668031 -0.380325 -3.717421
  H 2.548637 -2.065977 -3.140355
  H 6.757942 -0.679067 -1.197283
 23
 39.643022
  C 0.989144 0.393459 0.481974
  C 2.332086 0.153974 0.451008
  C 3.220506 0.681599 1.539152
  H 2.626146 1.147355 2.318796
  C 2.948534 -0.416993 -0.776838
  C 4.346606 -0.538420 -0.955126
  C 5.042822 -0.926408 -2.077944
  C 4.568102 -1.346950 -3.430363
  C 3.084241 -1.361649 -3.761922
  H 2.970543 -1.683921 -4.794412
  O 6.372398 -0.963598 -2.036056
  H 0.542881 0.903941 1.315350
  H 2.531614 -1.153149 0.150995
  H 0.329951 0.084133 -0.309393
  H 3.893009 1.434158 1.132920
  H 3.818716 -0.102231 1.996643
  H 2.282656 -0.551391 -1.613079
  H 4.958980 -0.295719 -0.095451
  H 4.984849 -2.346282 -3.596221
  H 5.089097 -0.701001 -4.144977
  H 2.648654 -0.369686 -3.683112
  H 2.541904 -2.068010 -3.140688
  H 6.750973 -0.700755 -1.178651
 23
 27.753559
  C 1.008279 0.413802 0.479332
  C 2.333737 0.197057 0.456710
  C 3.243962 0.730186 1.508017
  H 2.677563 1.269388 2.261384
  C 2.915987 -0.526896 -0.726923
  C 4.337923 -0.605482 -0.925891
  C 5.038261 -0.931727 -2.066287
  C 4.563233 -1.307265 -3.429877
  C 3.078278 -1.341193 -3.752859
  H 2.964125 -1.628673 -4.795481
  O 6.365410 -0.946668 -2.027962
  H 0.548793 0.950426 1.290293
  H 2.621071 -1.373979 -0.023725
  H 0.349909 0.075567 -0.301297
  H 3.962919 1.415371 1.062844
  H 3.793279 -0.065140 2.008060
  H 2.257742 -0.597224 -1.579899
  H 4.944798 -0.382307 -0.057211
  H 4.999836 -2.290443 -3.637963
  H 5.067091 -0.624577 -4.122459
  H 2.622431 -0.362019 -3.636569
  H 2.554291 -2.079533 -3.153670
  H 6.746000 -0.712873 -1.162233
 23
 19.720355
  C 1.028892 0.445543 0.478430
  C 2.348170 0.210793 0.450039
  C 3.277871 0.751925 1.475060
  H 2.737485 1.345651 2.206233
  C 2.884655 -0.621638 -0.680172
  C 4.324161 -0.662105 -0.889054
  C 5.028706 -0.923680 -2.044804
  C 4.553808 -1.258725 -3.417443
  C 3.069374 -1.336184 -3.732078
  H 2.957783 -1.597126 -4.781879
  O 6.353861 -0.900084 -2.012160
  H 0.574903 1.039867 1.251841
  H 2.604297 -1.598494 -0.231271
  H 0.360955 0.063143 -0.274172
  H 4.030003 1.381622 1.002111
  H 3.789513 -0.050337 2.004769
  H 2.279879 -0.537692 -1.576441
  H 4.926322 -0.467433 -0.010666
  H 5.022443 -2.218357 -3.664758
  H 5.030644 -0.537798 -4.090432
  H 2.578624 -0.377553 -3.587344
  H 2.574140 -2.106458 -3.149107
  H 6.736683 -0.706065 -1.137238
 23
 18.351890
  C 1.018514 0.339473 0.568305
  C 2.350915 0.227070 0.450877
  C 3.285737 0.790503 1.458048
  H 2.743768 1.345868 2.217588
  C 2.876746 -0.533462 -0.726823
  C 4.323775 -0.619487 -0.897093
  C 5.034731 -0.943568 -2.031937
  C 4.560291 -1.297825 -3.399875
  C 3.076656 -1.333071 -3.723989
  H 2.962652 -1.636854 -4.761864
  O 6.359098 -0.975114 -1.981265
  H 0.559272 0.866799 1.385587
  H 2.487248 -1.549106 -0.533539
  H 0.344549 -0.077020 -0.160762
  H 4.001598 1.456827 0.978710
  H 3.841478 -0.004211 1.954550
  H 2.359154 -0.234169 -1.639247
  H 4.917672 -0.419710 -0.014866
  H 4.995955 -2.280298 -3.616848
  H 5.069084 -0.615124 -4.089085
  H 2.620342 -0.351243 -3.628292
  H 2.546211 -2.053552 -3.109973
  H 6.737722 -0.763909 -1.108743
 23
 17.641842
  C 1.014166 0.265414 0.616720
  C 2.346680 0.218618 0.456250
  C 3.277277 0.784711 1.468760
  H 2.728457 1.317710 2.240948
  C 2.883162 -0.419009 -0.784918
  C 4.332858 -0.556640 -0.915733
  C 5.042690 -0.952262 -2.028383
  C 4.559644 -1.343003 -3.382706
  C 3.074830 -1.371923 -3.696440
  H 2.949813 -1.724650 -4.716387
  O 6.364749 -1.025134 -1.968002
  H 0.562678 0.718265 1.479337
  H 2.414980 -1.412966 -0.865676
  H 0.336790 -0.148334 -0.111438
  H 3.981556 1.472234 1.000011
  H 3.846271 -0.010753 1.949821
  H 2.465706 0.103860 -1.655084
  H 4.922147 -0.334282 -0.037572
  H 4.987122 -2.335688 -3.576859
  H 5.069764 -0.685245 -4.092890
  H 2.629712 -0.382612 -3.642248
  H 2.536669 -2.051541 -3.044664
  H 6.745449 -0.787954 -1.103383
 23
 17.562075
  C 1.013565 0.281508 0.606100
  C 2.347158 0.224010 0.453396
  C 3.274751 0.755780 1.486675
  H 2.723956 1.252631 2.279721
  C 2.888364 -0.384538 -0.799299
  C 4.336755 -0.529225 -0.925477
  C 5.043773 -0.945946 -2.031091
  C 4.557450 -1.352887 -3.380329
  C 3.070857 -1.406997 -3.683643
  H 2.944171 -1.768600 -4.701147
  O 6.366608 -1.023685 -1.970125
  H 0.563914 0.721171 1.478688
  H 2.408216 -1.366948 -0.927293
  H 0.335405 -0.105823 -0.133854
  H 3.970691 1.467672 1.045861
  H 3.852237 -0.054166 1.933526
  H 2.488198 0.176619 -1.654400
  H 4.928345 -0.290931 -0.051664
  H 4.999822 -2.335891 -3.573649
  H 5.051560 -0.687915 -4.098175
  H 2.609328 -0.425675 -3.630579
  H 2.548318 -2.091767 -3.023858
  H 6.749727 -0.769581 -1.109920
