 16
 0.000000
  H 1.482717 0.162473 0.455171
  C 2.565032 0.150105 0.423531
  C 3.261145 0.625821 1.606375
  C 2.368777 1.079277 2.737874
  H 2.960635 1.418571 3.582660
  C 3.162581 -0.314434 -0.732613
  C 4.555682 -0.403343 -0.953171
  C 5.059352 -0.872357 -2.121862
  H 4.430370 -1.196695 -2.931249
  H 6.123042 -0.934748 -2.275997
  H 3.953347 1.433695 1.322655
  H 3.954598 -0.152923 1.959693
  H 1.722665 0.271134 3.075574
  H 1.721477 1.896021 2.423671
  H 2.524344 -0.640070 -1.543841
  H 5.246242 -0.094286 -0.181743
 16
 0.331038
  H 1.477868 0.150714 0.452023
  C 2.559614 0.187279 0.403844
  C 3.256972 0.686415 1.579641
  C 2.371569 1.039697 2.754216
  H 2.966285 1.387043 3.592493
  C 3.155017 -0.251037 -0.759733
  C 4.547069 -0.418002 -0.952085
  C 5.063592 -0.918675 -2.101043
  H 4.441248 -1.339118 -2.874900
  H 6.126807 -0.949978 -2.264740
  H 3.881722 1.549881 1.303930
  H 4.015085 -0.052448 1.887031
  H 1.788214 0.180169 3.076665
  H 1.667485 1.826657 2.490388
  H 2.517024 -0.482881 -1.603255
  H 5.223249 -0.170594 -0.145328
 16
 1.492885
  H 1.478674 0.083440 0.487857
  C 2.558734 0.146898 0.420518
  C 3.263313 0.636589 1.596105
  C 2.373086 1.069542 2.740896
  H 2.967881 1.363653 3.597630
  C 3.141130 -0.264996 -0.758678
  C 4.534621 -0.353885 -0.989290
  C 5.068595 -0.893224 -2.113187
  H 4.487347 -1.470536 -2.812482
  H 6.120960 -0.794094 -2.327058
  H 3.950406 1.447237 1.319812
  H 3.946956 -0.155901 1.943178
  H 1.703291 0.268490 3.044481
  H 1.756314 1.919358 2.451795
  H 2.494165 -0.504882 -1.589702
  H 5.204047 -0.077442 -0.184756
 16
 3.021438
  H 1.470489 0.266868 0.422011
  C 2.553538 0.257192 0.374953
  C 3.266154 0.708535 1.564382
  C 2.383527 0.981857 2.767067
  H 2.972065 1.380568 3.590652
  C 3.128229 -0.193050 -0.791612
  C 4.514804 -0.375489 -0.992181
  C 5.068632 -0.978552 -2.074720
  H 4.528972 -1.670895 -2.702472
  H 6.112153 -0.845009 -2.305377
  H 3.849910 1.608263 1.322114
  H 4.035749 -0.031873 1.828495
  H 1.895576 0.074579 3.105500
  H 1.607280 1.704823 2.526673
  H 2.485932 -0.373045 -1.642076
  H 5.185198 -0.102156 -0.185164
 16
 6.165476
  H 1.464740 0.246568 0.440510
  C 2.545687 0.229290 0.380832
  C 3.276824 0.645422 1.573622
  C 2.395783 0.990318 2.762159
  H 2.994635 1.371594 3.582505
  C 3.099858 -0.159908 -0.817140
  C 4.483031 -0.272410 -1.063563
  C 5.081980 -0.981135 -2.055375
  H 4.629410 -1.834980 -2.538031
  H 6.092890 -0.750015 -2.355450
  H 3.909877 1.502677 1.323135
  H 3.988604 -0.140753 1.859403
  H 1.854551 0.111253 3.116443
  H 1.660271 1.748559 2.496724
  H 2.439960 -0.358455 -1.649248
  H 5.160265 0.053941 -0.274368
 16
 10.880009
  H 1.451148 0.276238 0.443281
  C 2.536019 0.299444 0.345264
  C 3.283277 0.669620 1.547117
  C 2.413051 0.956848 2.760587
  H 3.027202 1.209049 3.620697
  C 3.067400 -0.162082 -0.835786
  C 4.435899 -0.224781 -1.120134
  C 5.108995 -1.023957 -1.994750
  H 4.779353 -2.000198 -2.309184
  H 6.039307 -0.678055 -2.423976
  H 3.912706 1.544365 1.341505
  H 3.984700 -0.139545 1.785653
  H 1.807315 0.089380 3.014387
  H 1.745775 1.794227 2.575567
  H 2.389630 -0.383885 -1.646051
  H 5.125812 0.163124 -0.351846
 16
 19.175816
  H 1.424022 0.416357 0.424698
  C 2.497570 0.373093 0.319054
  C 3.291450 0.690580 1.511865
  C 2.449124 0.877896 2.765045
  H 3.079239 1.143444 3.609412
  C 2.995068 -0.082969 -0.874738
  C 4.346049 -0.211704 -1.194617
  C 5.142614 -1.074128 -1.880220
  H 4.992784 -2.143546 -1.942882
  H 5.979824 -0.695548 -2.458611
  H 3.862504 1.611614 1.323394
  H 4.038007 -0.094163 1.687854
  H 1.917497 -0.033381 3.014524
  H 1.714859 1.674865 2.626827
  H 2.304527 -0.282431 -1.684438
  H 5.106504 0.210404 -0.517282
 16
 28.791614
  H 1.392425 0.411220 0.449856
  C 2.463191 0.330362 0.341296
  C 3.285025 0.623197 1.527231
  C 2.459420 0.950110 2.764050
  H 3.105404 1.241661 3.586182
  C 2.950564 -0.096343 -0.870742
  C 4.272993 -0.259965 -1.201402
  C 5.177518 -0.980774 -1.925308
  H 5.154117 -2.060641 -2.039574
  H 6.007905 -0.488354 -2.415580
  H 3.946693 1.467653 1.298691
  H 3.938129 -0.229967 1.746409
  H 1.876260 0.087364 3.081555
  H 1.772609 1.771946 2.566915
  H 2.244268 -0.345922 -1.655596
  H 5.151387 -0.048455 -0.539754
 16
 35.428531
  H 1.357949 0.433208 0.468219
  C 2.421534 0.305373 0.346747
  C 3.282105 0.582355 1.518331
  C 2.485544 0.972594 2.757996
  H 3.154018 1.203836 3.582785
  C 2.889248 -0.149118 -0.869147
  C 4.168805 -0.323397 -1.259307
  C 5.230389 -0.916946 -1.853533
  H 5.343047 -2.000932 -1.881969
  H 5.968777 -0.362829 -2.425462
  H 3.979728 1.391131 1.273800
  H 3.893753 -0.298780 1.748123
  H 1.832996 0.161664 3.069502
  H 1.872010 1.850109 2.564780
  H 2.171904 -0.324467 -1.662967
  H 5.213386 -0.157447 -0.673156
 16
 33.534297
  H 1.344638 0.392719 0.492279
  C 2.406007 0.272336 0.364622
  C 3.278981 0.584654 1.519176
  C 2.490510 0.994187 2.756801
  H 3.163247 1.221955 3.578707
  C 2.873063 -0.155704 -0.864455
  C 4.129211 -0.365183 -1.266549
  C 5.245069 -0.869398 -1.844339
  H 5.366733 -1.944796 -1.968141
  H 5.975789 -0.252065 -2.363217
  H 3.967261 1.396727 1.253448
  H 3.901557 -0.285092 1.762920
  H 1.823775 0.194759 3.076987
  H 1.889196 1.877994 2.555103
  H 2.153397 -0.318505 -1.666013
  H 5.319619 -0.398128 -0.693389
 16
 30.348887
  H 1.344972 0.516793 0.459947
  C 2.396247 0.312761 0.348653
  C 3.270804 0.529683 1.522631
  C 2.498252 0.985977 2.754907
  H 3.181131 1.172572 3.577140
  C 2.843537 -0.200571 -0.856582
  C 4.074678 -0.425646 -1.288995
  C 5.260252 -0.850049 -1.792158
  H 5.536399 -1.900713 -1.740393
  H 5.832165 -0.261409 -2.510989
  H 4.037945 1.276183 1.286398
  H 3.801646 -0.398822 1.767591
  H 1.789735 0.223310 3.076700
  H 1.946408 1.898963 2.550918
  H 2.115983 -0.365981 -1.650238
  H 5.458315 -0.203858 -0.827293
 16
 20.961167
  H 1.330250 0.467870 0.465974
  C 2.391950 0.302654 0.402882
  C 3.227798 0.599281 1.585957
  C 2.398878 1.026672 2.791055
  H 3.046575 1.244856 3.636844
  C 2.930599 -0.167628 -0.784441
  C 4.118958 -0.477162 -1.218388
  C 5.323172 -0.845800 -1.781814
  H 5.407237 -1.917689 -1.983166
  H 5.603723 -0.240938 -2.650313
  H 3.945141 1.391028 1.338245
  H 3.827812 -0.280474 1.842746
  H 1.710559 0.238815 3.086702
  H 1.822252 1.920311 2.568095
  H 2.228755 -0.338146 -1.612837
  H 6.074811 -0.614460 -1.009300
