 32
 0.000000
  C 0.994437 0.133298 0.382879
  C 2.472702 0.140207 0.399509
  C 3.239809 0.613642 1.577872
  C 2.445057 1.099270 2.787195
  C 3.378246 1.549122 3.906753
  C 3.095926 -0.322279 -0.752303
  C 4.473044 -0.413035 -0.978896
  C 5.130778 -0.867753 -2.111886
  C 4.618513 -1.388859 -3.410512
  C 3.124549 -1.501385 -3.692019
  C 2.885251 -2.062692 -5.090831
  O 6.456599 -0.869907 -2.117309
  H 0.545957 0.501101 1.298818
  H 0.630125 -0.880999 0.213753
  H 0.629755 0.748707 -0.440773
  H 3.895876 1.429168 1.252386
  H 3.896164 -0.200225 1.906868
  H 1.806416 0.298954 3.166309
  H 1.806163 1.939299 2.507450
  H 4.014312 0.730760 4.238059
  H 2.800123 1.892390 4.761648
  H 4.014009 2.369474 3.579813
  H 2.436529 -0.639703 -1.542429
  H 5.101076 -0.083766 -0.158858
  H 5.068801 -2.379681 -3.540576
  H 5.069283 -0.763175 -4.189459
  H 2.653248 -0.519194 -3.634872
  H 2.652690 -2.171278 -2.971812
  H 3.319074 -1.417080 -5.851339
  H 1.817768 -2.139710 -5.283653
  H 3.318525 -3.055192 -5.193918
  H 6.839914 -0.536228 -1.284745
 32
 14.733098
  C 0.876630 0.186382 0.515827
  C 2.421095 0.116503 0.341157
  C 3.271554 0.576965 1.486571
  C 2.556406 1.079216 2.736532
  C 3.579230 1.501531 3.788126
  C 2.806606 -0.368580 -0.866231
  C 4.156784 -0.381408 -0.899663
  C 4.990362 -0.823926 -2.002623
  C 4.610375 -1.361148 -3.341302
  C 3.151035 -1.526693 -3.754765
  C 3.077308 -2.094691 -5.171231
  O 6.325522 -0.770507 -1.870755
  H 0.552781 0.569763 1.469914
  H 0.461670 -0.806815 0.378807
  H 0.461415 0.808493 -0.270222
  H 3.921407 1.390921 1.152319
  H 3.921753 -0.241763 1.808453
  H 1.927545 0.295231 3.158387
  H 1.927679 1.936803 2.497392
  H 4.212786 0.665365 4.075177
  H 3.074565 1.860672 4.681218
  H 4.213427 2.303331 3.416779
  H 2.127761 -0.679245 -1.639004
  H 4.732323 -0.042259 -0.055601
  H 5.117953 -2.330764 -3.428050
  H 5.118005 -0.720433 -4.074288
  H 2.641703 -0.563395 -3.745405
  H 2.641056 -2.216310 -3.082625
  H 3.561255 -1.431085 -5.883409
  H 2.040761 -2.216120 -5.475210
  H 3.560517 -3.066902 -5.227541
  H 6.645835 -0.422290 -1.001962
 32
 53.743053
  C 0.888551 0.212822 0.577617
  C 2.471900 0.092356 0.279003
  C 3.308031 0.555006 1.433853
  C 2.610081 1.057355 2.682545
  C 3.657324 1.469526 3.712416
  C 2.649361 -0.397409 -0.940756
  C 3.966456 -0.369053 -0.871422
  C 4.900500 -0.802698 -1.953113
  C 4.604633 -1.345256 -3.303345
  C 3.179152 -1.534428 -3.771589
  C 3.168755 -2.102962 -5.187177
  O 6.192367 -0.714506 -1.738471
  H 0.630953 0.598213 1.538005
  H 0.460333 -0.771825 0.461391
  H 0.461131 0.844596 -0.186823
  H 3.949959 1.376959 1.116067
  H 3.946779 -0.260267 1.773470
  H 1.987883 0.279024 3.116079
  H 1.990371 1.921166 2.457759
  H 4.288984 0.628132 3.988500
  H 3.172013 1.832288 4.614332
  H 4.290871 2.266795 3.330434
  H 1.941076 -0.688217 -1.665750
  H 4.551524 -0.031251 -0.028752
  H 5.146553 -2.301741 -3.362666
  H 5.145329 -0.694682 -4.008303
  H 2.659111 -0.577807 -3.780964
  H 2.660287 -2.232490 -3.116454
  H 3.669526 -1.431450 -5.879948
  H 2.146912 -2.241853 -5.531377
  H 3.670594 -3.066719 -5.223296
  H 6.452074 -0.358082 -0.853122
 32
 102.758082
  C 0.848513 0.215802 0.585992
  C 2.533953 0.066491 0.217789
  C 3.325345 0.541048 1.398228
  C 2.634552 1.052951 2.673616
  C 3.707974 1.458744 3.681465
  C 2.579642 -0.423715 -1.001526
  C 3.877834 -0.356486 -0.836948
  C 4.899753 -0.795883 -1.933653
  C 4.631679 -1.337195 -3.282054
  C 3.202123 -1.527070 -3.756045
  C 3.198586 -2.095345 -5.171539
  O 6.176157 -0.688423 -1.669389
  H 0.602146 0.605362 1.555766
  H 0.433469 -0.786845 0.471263
  H 0.434879 0.861646 -0.190257
  H 3.963415 1.374517 1.079797
  H 3.965870 -0.279520 1.743965
  H 2.018477 0.276807 3.123500
  H 2.017294 1.923602 2.461433
  H 4.338985 0.613119 3.945249
  H 3.243551 1.825091 4.593689
  H 4.338165 2.252329 3.286506
  H 1.845076 -0.711728 -1.719254
  H 4.515917 -0.039051 -0.040973
  H 5.163473 -2.294506 -3.344878
  H 5.163962 -0.689441 -3.989322
  H 2.680699 -0.570639 -3.766300
  H 2.680051 -2.224685 -3.102114
  H 3.702756 -1.422600 -5.862877
  H 2.177717 -2.235191 -5.521649
  H 3.701607 -3.059930 -5.205587
  H 6.402488 -0.335153 -0.787731
 32
 150.015446
  C 0.810951 0.230993 0.641572
  C 2.616665 -0.004278 0.222855
  C 3.364923 0.518176 1.420857
  C 2.649716 1.080348 2.644672
  C 3.699138 1.520635 3.659421
  C 2.539067 -0.557886 -0.978064
  C 3.837456 -0.429586 -0.756441
  C 4.900053 -0.833006 -1.938875
  C 4.639465 -1.333564 -3.307311
  C 3.219943 -1.524586 -3.787972
  C 3.225542 -2.041251 -5.221919
  O 6.173686 -0.723088 -1.661381
  H 0.590737 0.651526 1.610916
  H 0.419723 -0.774213 0.552178
  H 0.418007 0.861566 -0.145233
  H 4.014990 1.331789 1.085668
  H 3.996191 -0.284990 1.812017
  H 2.018847 0.327619 3.109805
  H 2.044270 1.943267 2.381178
  H 4.318122 0.682554 3.974368
  H 3.213541 1.926386 4.542879
  H 4.344426 2.294694 3.248651
  H 1.787578 -0.846926 -1.667032
  H 4.557067 -0.163990 -0.004350
  H 5.183000 -2.286144 -3.405725
  H 5.162061 -0.649586 -3.994270
  H 2.686646 -0.575179 -3.764230
  H 2.708763 -2.252781 -3.159827
  H 3.720733 -1.337642 -5.888051
  H 2.208513 -2.182260 -5.577773
  H 3.741590 -2.996959 -5.289868
  H 6.391723 -0.396088 -0.769348
 32
 121.436994
  C 0.289799 -0.058132 0.517531
  C 3.565068 -0.112690 0.346687
  C 3.941087 0.620345 1.520213
  C 2.725452 0.854554 2.438955
  C 3.141140 1.685570 3.648519
  C 3.255367 -0.962037 -0.520567
  C 4.754969 -0.512516 -0.852445
  C 5.218677 -0.763348 -2.108217
  C 4.557991 -1.178155 -3.390071
  C 3.058046 -1.435363 -3.489791
  C 2.693917 -1.743696 -4.940560
  O 6.539871 -0.675027 -2.328543
  H -0.135523 0.455492 1.353351
  H 0.387160 -1.121668 0.573108
  H 0.207423 0.385958 -0.452779
  H 4.373838 1.589220 1.255069
  H 4.698743 0.061577 2.080748
  H 2.320190 -0.101238 2.773375
  H 1.945377 1.375158 1.882533
  H 3.907327 1.178703 4.231843
  H 2.281341 1.852160 4.294444
  H 3.529592 2.654604 3.341560
  H 2.577315 -1.565088 -1.061451
  H 5.532349 -0.196875 -0.166058
  H 5.096657 -2.062818 -3.744546
  H 4.819695 -0.382674 -4.095695
  H 2.496952 -0.554622 -3.174564
  H 2.777281 -2.303095 -2.894643
  H 2.942404 -0.907602 -5.590207
  H 1.625766 -1.929672 -5.028160
  H 3.219744 -2.625997 -5.298809
  H 7.058282 -0.323435 -1.588240
 32
 107.474730
  C 0.429923 -0.326132 0.048820
  C 3.884805 -0.304374 0.440086
  C 4.044136 0.643038 1.499218
  C 2.680742 0.818075 2.204144
  C 2.791383 1.870098 3.303258
  C 3.789105 -1.388202 -0.217555
  C 5.128420 -0.883424 -0.757037
  C 5.396053 -0.974568 -2.099462
  C 4.487532 -1.121936 -3.271348
  C 2.976942 -1.223787 -3.094720
  C 2.298656 -1.195635 -4.463009
  O 6.654505 -0.945754 -2.507871
  H -0.194311 0.287770 0.661628
  H 0.642096 -1.323585 0.361927
  H 0.626070 -0.028335 -0.958510
  H 4.374158 1.612783 1.118115
  H 4.781945 0.283637 2.223455
  H 2.370645 -0.135384 2.634098
  H 1.928674 1.115299 1.468642
  H 3.524466 1.577002 4.052149
  H 1.830631 1.987557 3.799749
  H 3.081234 2.835826 2.894009
  H 3.120127 -2.107450 -0.617787
  H 5.963989 -0.728814 -0.087402
  H 4.845635 -1.970575 -3.860354
  H 4.703057 -0.238129 -3.884141
  H 2.606738 -0.386972 -2.501328
  H 2.705578 -2.161743 -2.612431
  H 2.521810 -0.270844 -4.991047
  H 1.219507 -1.269716 -4.352670
  H 2.633209 -2.027867 -5.078254
  H 7.312387 -0.761716 -1.812510
