 17
 0.000000
  C 1.010765 0.112481 0.323484
  C 2.476475 0.125869 0.294975
  H 3.025707 0.439357 1.171677
  C 3.142098 -0.284376 -0.835827
  C 4.526765 -0.364938 -0.978841
  C 5.207275 -0.853213 -2.096345
  C 4.574829 -1.372194 -3.321536
  H 3.492703 -1.346610 -3.297827
  O 6.513716 -0.884642 -2.121387
  H 0.603118 0.422700 1.279053
  H 0.650061 -0.889577 0.073806
  H 0.614429 0.756774 -0.464478
  H 2.520361 -0.597336 -1.665889
  H 5.127555 -0.018455 -0.145736
  H 4.915397 -2.393703 -3.489073
  H 4.938738 -0.801049 -4.175318
  H 6.959657 -0.545717 -1.318258
 17
 -0.332424
  C 1.007832 0.133221 0.349876
  C 2.466845 0.135864 0.248449
  H 3.048757 0.422775 1.113520
  C 3.107724 -0.280764 -0.890008
  C 4.496928 -0.389287 -0.987461
  C 5.205374 -0.863276 -2.092985
  C 4.596708 -1.340482 -3.351586
  H 3.514391 -1.330202 -3.338205
  O 6.510607 -0.919540 -2.078433
  H 0.642505 0.624444 1.246196
  H 0.704979 -0.919706 0.376669
  H 0.536826 0.545237 -0.543317
  H 2.495424 -0.551966 -1.738600
  H 5.073954 -0.080306 -0.123055
  H 4.954130 -2.350209 -3.559109
  H 4.959798 -0.724911 -4.176706
  H 6.936843 -0.605863 -1.255996
 17
 1.362353
  C 1.002830 0.184615 0.346651
  C 2.454339 0.136697 0.226642
  H 3.048202 0.444866 1.076546
  C 3.085683 -0.310222 -0.907304
  C 4.475127 -0.444954 -0.977822
  C 5.201232 -0.883983 -2.087493
  C 4.612830 -1.290914 -3.378700
  H 3.532909 -1.345343 -3.357334
  O 6.506209 -0.964432 -2.049329
  H 0.630490 0.849387 1.115090
  H 0.863201 -0.847857 0.705367
  H 0.474547 0.256244 -0.597529
  H 2.480780 -0.554345 -1.767881
  H 5.036997 -0.184067 -0.089134
  H 5.027711 -2.254356 -3.672832
  H 4.925099 -0.583895 -4.148389
  H 6.916868 -0.692845 -1.206303
 17
 13.380998
  C 0.992566 0.286535 0.333421
  C 2.418965 0.092793 0.219320
  H 3.038373 0.422406 1.044937
  C 3.059726 -0.315463 -0.929718
  C 4.445725 -0.486933 -0.973418
  C 5.184116 -0.901203 -2.077498
  C 4.618482 -1.287012 -3.389798
  H 3.538181 -1.339684 -3.385562
  O 6.498686 -0.960988 -2.033914
  H 0.586588 0.855640 1.153708
  H 1.164948 -0.776135 0.738536
  H 0.397830 0.205153 -0.564340
  H 2.469993 -0.538832 -1.805562
  H 4.998325 -0.243231 -0.074105
  H 5.034200 -2.248637 -3.687758
  H 4.942228 -0.567764 -4.142492
  H 6.889285 -0.691316 -1.182216
 17
 27.974527
  C 0.984583 0.368771 0.325402
  C 2.377091 0.058322 0.236537
  H 3.016841 0.388076 1.049660
  C 3.040634 -0.327935 -0.937330
  C 4.422685 -0.486513 -0.980543
  C 5.163352 -0.897691 -2.076556
  C 4.608458 -1.292057 -3.394013
  H 3.528606 -1.351655 -3.394662
  O 6.485818 -0.965697 -2.025680
  H 0.561484 0.839301 1.194975
  H 1.474528 -0.770474 0.686377
  H 0.355971 0.250100 -0.542519
  H 2.450002 -0.539145 -1.815102
  H 4.974215 -0.246616 -0.079397
  H 5.030541 -2.252909 -3.684621
  H 4.931948 -0.573825 -4.147446
  H 6.863902 -0.700135 -1.169114
 17
 33.551258
  C 0.976654 0.439030 0.298636
  C 2.353087 0.030084 0.279315
  H 2.987883 0.386787 1.086158
  C 3.035575 -0.356175 -0.924123
  C 4.407444 -0.499079 -0.975261
  C 5.146719 -0.900544 -2.079766
  C 4.585820 -1.293809 -3.393748
  H 3.506927 -1.368223 -3.386003
  O 6.467702 -0.949661 -2.038408
  H 0.547489 0.893043 1.172255
  H 1.746729 -0.886173 0.664284
  H 0.351107 0.310351 -0.567898
  H 2.434621 -0.555276 -1.797052
  H 4.964269 -0.262052 -0.076340
  H 5.018745 -2.246897 -3.693596
  H 4.893857 -0.567676 -4.146187
  H 6.850164 -0.683931 -1.183309
 17
 31.683347
  C 0.971910 0.480234 0.269904
  C 2.326041 -0.008463 0.322095
  H 2.947686 0.417858 1.107415
  C 3.035855 -0.376644 -0.902289
  C 4.397355 -0.500701 -0.964350
  C 5.131251 -0.896463 -2.085068
  C 4.554916 -1.289956 -3.388679
  H 3.475155 -1.347306 -3.376091
  O 6.442585 -0.928227 -2.057478
  H 0.535338 0.976239 1.115019
  H 2.046812 -1.036727 0.659249
  H 0.357700 0.307658 -0.595214
  H 2.423788 -0.574759 -1.769068
  H 4.963431 -0.257945 -0.073109
  H 4.971460 -2.251748 -3.685292
  H 4.872691 -0.575451 -4.148162
  H 6.839221 -0.662341 -1.207243
 17
 34.316036
  C 0.968796 0.461711 0.315263
  C 2.323513 0.029318 0.334361
  H 2.945254 0.407316 1.140817
  C 3.022204 -0.372516 -0.894620
  C 4.390092 -0.502427 -0.960908
  C 5.115024 -0.894472 -2.082568
  C 4.535266 -1.277917 -3.389166
  H 3.454013 -1.291323 -3.389677
  O 6.428504 -0.933496 -2.061853
  H 0.552085 1.013369 1.135442
  H 2.255549 -1.102267 0.443767
  H 0.331984 0.246455 -0.523600
  H 2.411466 -0.539688 -1.768641
  H 4.957576 -0.269423 -0.068212
  H 4.913704 -2.260260 -3.669437
  H 4.891679 -0.586711 -4.152500
  H 6.829484 -0.672402 -1.212736
 17
 37.098898
  C 0.975031 0.471505 0.350098
  C 2.306219 0.082831 0.337792
  H 2.934359 0.417516 1.156102
  C 2.992598 -0.404655 -0.872352
  C 4.379625 -0.533754 -0.945900
  C 5.095598 -0.893924 -2.072171
  C 4.512110 -1.278951 -3.379060
  H 3.431462 -1.320014 -3.370033
  O 6.416123 -0.918181 -2.066252
  H 0.566202 1.015438 1.180325
  H 2.410246 -1.112525 0.209007
  H 0.313136 0.244269 -0.466437
  H 2.384266 -0.554491 -1.751973
  H 4.946340 -0.304778 -0.051478
  H 4.912194 -2.248644 -3.671600
  H 4.842022 -0.571132 -4.138569
  H 6.818780 -0.658513 -1.218975
 17
 32.834000
  C 1.004364 0.507194 0.357663
  C 2.304101 0.140266 0.335775
  H 2.947805 0.450118 1.148931
  C 2.966195 -0.472464 -0.842536
  C 4.379048 -0.575743 -0.931053
  C 5.093132 -0.891388 -2.067821
  C 4.506399 -1.258027 -3.378590
  H 3.426747 -1.314878 -3.363350
  O 6.414258 -0.904048 -2.067134
  H 0.600424 1.054336 1.189422
  H 2.546874 -1.218674 0.020664
  H 0.327290 0.273316 -0.445582
  H 2.356483 -0.594549 -1.727060
  H 4.942447 -0.357485 -0.032582
  H 4.918151 -2.215627 -3.693916
  H 4.821758 -0.530738 -4.126149
  H 6.819765 -0.661899 -1.215744
 17
 23.502542
  C 1.029099 0.555900 0.342300
  C 2.311768 0.194492 0.338064
  H 2.970177 0.503679 1.136553
  C 2.932878 -0.567219 -0.789605
  C 4.366488 -0.613931 -0.901078
  C 5.081574 -0.887314 -2.052230
  C 4.488985 -1.236669 -3.362222
  H 3.410915 -1.314652 -3.337102
  O 6.397808 -0.859263 -2.061165
  H 0.620965 1.141529 1.146806
  H 2.627876 -1.420683 -0.105130
  H 0.347667 0.288036 -0.446873
  H 2.329527 -0.643924 -1.685951
  H 4.927444 -0.383814 -0.003964
  H 4.916052 -2.178097 -3.705427
  H 4.784266 -0.487764 -4.096885
  H 6.809497 -0.643406 -1.204574
 17
 17.629914
  C 1.055913 0.559415 0.349514
  C 2.344370 0.233181 0.329911
  H 3.009351 0.542195 1.122250
  C 2.918353 -0.607792 -0.762978
  C 4.364658 -0.626170 -0.886122
  C 5.079224 -0.889233 -2.043361
  C 4.478584 -1.245824 -3.345529
  H 3.401289 -1.334341 -3.310851
  O 6.391013 -0.842304 -2.058761
  H 0.637595 1.167439 1.132413
  H 2.611452 -1.576681 -0.313237
  H 0.373347 0.248543 -0.423846
  H 2.365372 -0.536276 -1.697775
  H 4.924091 -0.403223 0.013864
  H 4.914100 -2.182979 -3.691611
  H 4.760910 -0.498146 -4.087305
  H 6.810604 -0.606147 -1.210484
 17
 16.657847
  C 1.038922 0.480355 0.436993
  C 2.347012 0.256035 0.330812
  H 3.024155 0.576705 1.108553
  C 2.914988 -0.495695 -0.821382
  C 4.365784 -0.558953 -0.905801
  C 5.089524 -0.901796 -2.036388
  C 4.491202 -1.303461 -3.326594
  H 3.411633 -1.362151 -3.297830
  O 6.401699 -0.902110 -2.033644
  H 0.621127 1.016008 1.271024
  H 2.526663 -1.509781 -0.603720
  H 0.339251 0.157203 -0.315915
  H 2.428975 -0.237270 -1.765819
  H 4.915678 -0.316369 -0.005322
  H 4.905454 -2.266194 -3.625022
  H 4.800027 -0.599218 -4.099798
  H 6.818130 -0.631653 -1.194056
 17
 15.857760
  C 1.029065 0.428253 0.491377
  C 2.339462 0.236335 0.339379
  H 3.024313 0.561373 1.108201
  C 2.911726 -0.421219 -0.861680
  C 4.366779 -0.498903 -0.920408
  C 5.093090 -0.916309 -2.024590
  C 4.491686 -1.366339 -3.296319
  H 3.411194 -1.436982 -3.257331
  O 6.404928 -0.939263 -2.014062
  H 0.623351 0.917778 1.360857
  H 2.494285 -1.443827 -0.901216
  H 0.316793 0.110477 -0.250630
  H 2.495445 0.025661 -1.775288
  H 4.912621 -0.208481 -0.032017
  H 4.918055 -2.329828 -3.570400
  H 4.785123 -0.679681 -4.093545
  H 6.822312 -0.637387 -1.186236
 17
 15.672133
  C 1.028945 0.432969 0.489177
  C 2.336583 0.216079 0.345914
  H 3.016544 0.486594 1.141165
  C 2.915338 -0.392210 -0.876031
  C 4.371241 -0.471720 -0.927315
  C 5.095451 -0.931908 -2.015613
  C 4.487619 -1.404930 -3.277794
  H 3.427303 -1.600272 -3.192663
  O 6.406056 -0.965919 -2.003845
  H 0.624440 0.881239 1.379165
  H 2.486887 -1.402609 -0.993097
  H 0.318938 0.174346 -0.278161
  H 2.519439 0.115865 -1.766422
  H 4.917612 -0.143633 -0.052803
  H 5.010399 -2.297506 -3.617001
  H 4.650997 -0.653725 -4.052789
  H 6.826435 -0.641006 -1.185795
