 27
 0.000000
  C 0.895206 0.034600 0.268971
  C 2.389192 0.039090 0.087025
  C 3.233220 -0.030254 1.352871
  C 2.517562 -0.075105 2.702841
  C 3.537370 -0.135537 3.836633
  C 2.982485 0.112181 -1.108741
  C 2.336323 0.211257 -2.474507
  C 0.827943 0.202683 -2.707479
  C 0.545854 0.314593 -4.204318
  H 4.057527 0.118559 -1.176355
  H 0.621621 -0.027905 1.314691
  H 0.444364 -0.816720 -0.233703
  H 0.452744 0.945076 -0.125842
  H 3.894244 0.842261 1.371619
  H 3.866005 -0.918095 1.307923
  H 1.876211 -0.956667 2.765158
  H 1.900471 0.815743 2.837325
  H 4.159487 -1.023655 3.747172
  H 3.033549 -0.167820 4.800174
  H 4.183954 0.739314 3.818983
  H 2.749966 -0.616542 -3.063521
  H 2.721022 1.135324 -2.923342
  H 0.351758 1.042997 -2.205420
  H 0.384661 -0.722642 -2.342797
  H 0.957411 1.238433 -4.605651
  H -0.525999 0.309527 -4.389773
  H 0.989501 -0.519971 -4.743444
 27
 -1.897943
  C 0.819771 0.348108 0.335273
  C 2.300819 0.199860 0.124652
  C 3.195169 0.073191 1.348809
  C 2.526750 -0.135956 2.705244
  C 3.577291 -0.303596 3.798023
  C 2.894831 0.184400 -1.067751
  C 2.345294 0.267638 -2.468010
  C 0.853069 0.094629 -2.736931
  C 0.577328 0.154341 -4.236869
  H 3.979167 0.120426 -1.082139
  H 0.566949 0.369905 1.388873
  H 0.276435 -0.476375 -0.118036
  H 0.465086 1.276045 -0.107429
  H 3.823530 0.966890 1.414724
  H 3.860059 -0.776203 1.179310
  H 1.899485 -1.029382 2.676421
  H 1.899405 0.720815 2.958687
  H 4.212458 -1.162497 3.591418
  H 3.101939 -0.453968 4.764828
  H 4.208306 0.580594 3.860423
  H 2.871986 -0.499343 -3.049694
  H 2.661133 1.233054 -2.885538
  H 0.279814 0.879286 -2.247505
  H 0.518261 -0.871185 -2.356020
  H 0.889622 1.113477 -4.645615
  H -0.484907 0.027665 -4.434841
  H 1.118832 -0.631673 -4.759899
 27
 -2.370595
  C 0.852899 0.648632 0.337657
  C 2.315593 0.372089 0.130910
  C 3.201036 0.219938 1.358906
  C 2.519928 -0.264350 2.638160
  C 3.544647 -0.473554 3.747980
  C 2.902993 0.242445 -1.056017
  C 2.357390 0.273330 -2.458727
  C 0.870197 0.025672 -2.695886
  C 0.567419 -0.008892 -4.190796
  H 3.982460 0.133984 -1.065507
  H 0.627702 0.803101 1.386660
  H 0.240326 -0.176886 -0.016710
  H 0.559870 1.548751 -0.199399
  H 3.707470 1.167701 1.563052
  H 3.952231 -0.521756 1.085831
  H 2.003043 -1.205954 2.441415
  H 1.783750 0.463756 2.982470
  H 4.285786 -1.212879 3.451711
  H 3.058404 -0.820305 4.657159
  H 4.061625 0.457832 3.969871
  H 2.909424 -0.489971 -3.018802
  H 2.629533 1.236595 -2.908742
  H 0.271680 0.810524 -2.237975
  H 0.585414 -0.930509 -2.253232
  H 0.833999 0.937933 -4.656382
  H -0.491759 -0.187915 -4.362005
  H 1.131814 -0.800148 -4.680391
 27
 -3.685025
  C 0.927826 0.927335 0.330964
  C 2.359344 0.519161 0.129186
  C 3.203723 0.352506 1.373447
  C 2.518748 -0.404035 2.513974
  C 3.484124 -0.636350 3.670552
  C 2.937014 0.300635 -1.049217
  C 2.367160 0.290897 -2.443145
  C 0.888460 -0.042229 -2.628878
  C 0.552157 -0.177465 -4.110633
  H 4.006080 0.121517 -1.055807
  H 0.762792 1.243411 1.356765
  H 0.243279 0.109808 0.115901
  H 0.679455 1.765245 -0.317282
  H 3.538727 1.328286 1.735903
  H 4.071864 -0.231902 1.068795
  H 2.161376 -1.365714 2.139442
  H 1.656756 0.150978 2.885946
  H 4.344088 -1.216321 3.342189
  H 2.992975 -1.177501 4.476264
  H 3.843133 0.312678 4.063707
  H 2.940328 -0.455907 -3.002890
  H 2.577878 1.257595 -2.917238
  H 0.259834 0.734800 -2.199706
  H 0.665565 -0.983802 -2.123110
  H 0.761812 0.752408 -4.635671
  H -0.500957 -0.415444 -4.243239
  H 1.141966 -0.968433 -4.569840
 27
 -3.329007
  C 1.005255 1.239322 0.324776
  C 2.416993 0.754191 0.135739
  C 3.193326 0.546148 1.408713
  C 2.533857 -0.534474 2.274521
  C 3.376434 -0.848578 3.504811
  C 3.003921 0.444888 -1.034906
  C 2.384330 0.311568 -2.402693
  C 0.917807 -0.103234 -2.492178
  C 0.535835 -0.416863 -3.935118
  H 4.084123 0.357153 -1.055402
  H 0.901052 1.673858 1.316654
  H 0.275355 0.436779 0.233623
  H 0.767969 2.008095 -0.407006
  H 3.290228 1.466306 1.986019
  H 4.165446 0.162762 1.105047
  H 2.408692 -1.438830 1.675291
  H 1.542890 -0.207791 2.594143
  H 4.355320 -1.223437 3.213075
  H 2.889651 -1.602082 4.120206
  H 3.520000 0.046115 4.107405
  H 2.967719 -0.455841 -2.923239
  H 2.531238 1.242404 -2.964102
  H 0.267946 0.688078 -2.126185
  H 0.757909 -0.990325 -1.875717
  H 0.693844 0.453612 -4.568770
  H -0.511992 -0.701587 -3.999747
  H 1.137329 -1.235676 -4.325091
 27
 4.964071
  C 0.975104 1.415571 0.301262
  C 2.362199 0.856660 0.159489
  C 3.128617 0.637123 1.438865
  C 2.538222 -0.583374 2.166336
  C 3.385899 -0.972477 3.370755
  C 3.004724 0.540767 -0.984327
  C 2.398213 0.340084 -2.353819
  C 0.979037 -0.220336 -2.404029
  C 0.581315 -0.568944 -3.834404
  H 4.068400 0.733898 -1.037538
  H 0.899297 1.923778 1.259394
  H 0.195293 0.653121 0.272790
  H 0.779911 2.132940 -0.492459
  H 3.147211 1.492479 2.109708
  H 4.089775 0.289619 1.069259
  H 2.479174 -1.419980 1.468671
  H 1.521191 -0.360253 2.503216
  H 4.394824 -1.228740 3.061185
  H 2.954031 -1.831652 3.881373
  H 3.445627 -0.146806 4.078298
  H 3.052771 -0.367023 -2.874332
  H 2.435670 1.277639 -2.923297
  H 0.269385 0.503023 -2.011221
  H 0.925433 -1.117355 -1.782958
  H 0.614482 0.316899 -4.465635
  H -0.428662 -0.972596 -3.863257
  H 1.257890 -1.310994 -4.253175
 27
 25.217443
  C 0.866332 1.703014 0.251651
  C 2.215844 1.060358 0.213219
  C 2.941202 0.717115 1.490892
  C 2.511825 -0.660396 2.037663
  C 3.488103 -1.148144 3.098460
  C 2.956791 0.721358 -0.863542
  C 2.428329 0.389418 -2.244330
  C 1.075418 -0.317496 -2.267835
  C 0.727551 -0.807312 -3.669068
  H 3.949453 1.140489 -0.928714
  H 0.772351 2.247820 1.189435
  H 0.042188 0.988709 0.211550
  H 0.754917 2.392904 -0.581987
  H 2.907343 1.461805 2.277251
  H 3.843560 0.388735 0.946711
  H 2.454010 -1.379334 1.219245
  H 1.512977 -0.591385 2.481791
  H 4.484775 -1.263853 2.678336
  H 3.168318 -2.108288 3.497405
  H 3.545028 -0.437477 3.919913
  H 3.168923 -0.266467 -2.711686
  H 2.370695 1.295381 -2.863313
  H 0.296844 0.358513 -1.926471
  H 1.103918 -1.166669 -1.580906
  H 0.680413 0.028674 -4.364100
  H -0.237541 -1.309576 -3.671318
  H 1.478702 -1.507855 -4.029304
 27
 53.322936
  C 0.773912 1.942249 0.246139
  C 2.065410 1.190716 0.279649
  C 2.743417 0.727325 1.516898
  C 2.480626 -0.724561 1.976692
  C 3.606662 -1.230792 2.865250
  C 2.889663 0.815539 -0.755207
  C 2.455469 0.387677 -2.147332
  C 1.136281 -0.381577 -2.185710
  C 0.862445 -0.956595 -3.570831
  H 3.843311 1.324499 -0.812615
  H 0.610230 2.401707 1.219419
  H -0.083999 1.292820 0.048458
  H 0.794336 2.712917 -0.521289
  H 2.719210 1.398511 2.372452
  H 3.596494 0.349926 0.765623
  H 2.357059 -1.382120 1.114719
  H 1.542474 -0.756524 2.546402
  H 4.544782 -1.265357 2.314905
  H 3.383083 -2.231260 3.229292
  H 3.739576 -0.575020 3.722512
  H 3.247017 -0.250852 -2.552096
  H 2.383815 1.261064 -2.812054
  H 0.316383 0.278499 -1.906053
  H 1.174179 -1.193489 -1.454919
  H 0.822159 -0.160743 -4.312493
  H -0.087289 -1.487191 -3.585667
  H 1.647804 -1.652858 -3.860020
 27
 70.408951
  C 0.778342 2.026902 0.260312
  C 2.041893 1.245719 0.331148
  C 2.645294 0.728404 1.507958
  C 2.463338 -0.734472 1.903048
  C 3.600939 -1.242138 2.781282
  C 2.911864 0.818506 -0.710511
  C 2.477332 0.368732 -2.095610
  C 1.173557 -0.423451 -2.118355
  C 0.892030 -0.999860 -3.500914
  H 3.837507 1.384764 -0.793229
  H 0.574634 2.471359 1.233429
  H -0.065091 1.380717 0.013956
  H 0.830940 2.813919 -0.491451
  H 2.617418 1.349015 2.411795
  H 3.581258 0.286176 0.459571
  H 2.373620 -1.366914 1.016610
  H 1.522908 -0.816985 2.462485
  H 4.546548 -1.206232 2.242935
  H 3.417662 -2.269679 3.088230
  H 3.693866 -0.628396 3.675025
  H 3.273375 -0.260672 -2.504745
  H 2.388973 1.238032 -2.756580
  H 0.345250 0.222014 -1.827023
  H 1.234680 -1.235546 -1.390090
  H 0.817606 -0.202867 -4.237704
  H -0.043040 -1.555674 -3.502132
  H 1.690582 -1.672870 -3.806403
 27
 53.855451
  C 0.812817 2.106209 0.240840
  C 2.025330 1.255537 0.378980
  C 2.513275 0.710417 1.539225
  C 2.435933 -0.760033 1.883077
  C 3.604141 -1.240795 2.741362
  C 2.961740 0.781181 -0.678040
  C 2.496897 0.356405 -2.059453
  C 1.206552 -0.458744 -2.060062
  C 0.897272 -1.014610 -3.443425
  H 3.856840 1.410517 -0.762326
  H 0.607052 2.611735 1.183112
  H -0.047032 1.482001 0.008674
  H 0.916157 2.850935 -0.546969
  H 2.445840 1.293127 2.473646
  H 3.536589 0.195647 0.216340
  H 2.375603 -1.369364 0.978917
  H 1.508054 -0.903831 2.442496
  H 4.544609 -1.132878 2.204106
  H 3.479383 -2.288268 3.006560
  H 3.666257 -0.659043 3.657568
  H 3.287705 -0.248939 -2.515488
  H 2.371372 1.243569 -2.684381
  H 0.376013 0.164547 -1.732829
  H 1.303545 -1.282859 -1.350084
  H 0.778178 -0.206517 -4.161324
  H -0.020112 -1.596573 -3.426484
  H 1.702899 -1.660040 -3.785884
 27
 28.630949
  C 0.899938 2.201905 0.239646
  C 2.059154 1.280832 0.405432
  C 2.438613 0.690016 1.564454
  C 2.449526 -0.793908 1.827087
  C 3.576059 -1.251140 2.754606
  C 2.967218 0.815533 -0.700445
  C 2.480240 0.358432 -2.066122
  C 1.212681 -0.492005 -2.025724
  C 0.884552 -1.070460 -3.396964
  H 3.799907 1.525302 -0.828162
  H 0.612714 2.627141 1.200976
  H 0.058600 1.622577 -0.134977
  H 1.096629 3.012928 -0.463237
  H 2.276054 1.211249 2.515765
  H 3.582884 0.142250 -0.050889
  H 2.502895 -1.359295 0.893740
  H 1.488066 -1.017891 2.297854
  H 4.546245 -1.061393 2.299981
  H 3.495799 -2.316317 2.962233
  H 3.530781 -0.712976 3.699168
  H 3.274808 -0.235065 -2.528300
  H 2.318291 1.230737 -2.703372
  H 0.371771 0.111698 -1.685841
  H 1.348094 -1.305418 -1.309492
  H 0.738068 -0.272002 -4.121865
  H -0.024920 -1.665839 -3.354948
  H 1.694441 -1.706058 -3.749359
 27
 9.124898
  C 1.050370 2.247233 0.151772
  C 2.091080 1.203172 0.392495
  C 2.279262 0.589166 1.571497
  C 2.481366 -0.883231 1.813660
  C 3.562277 -1.191550 2.850696
  C 3.010170 0.763398 -0.718153
  C 2.455162 0.365436 -2.079384
  C 1.214966 -0.522141 -1.996939
  C 0.805627 -1.039710 -3.370732
  H 3.790549 1.531077 -0.832069
  H 0.724032 2.691629 1.089831
  H 0.190856 1.767141 -0.310152
  H 1.396053 3.038646 -0.515376
  H 1.982127 1.066865 2.506218
  H 3.599003 -0.026684 -0.222565
  H 2.705953 -1.417152 0.889305
  H 1.520124 -1.251704 2.182735
  H 4.534269 -0.850221 2.500188
  H 3.620519 -2.261699 3.040099
  H 3.342320 -0.687931 3.789681
  H 3.231953 -0.183890 -2.618097
  H 2.229637 1.262715 -2.659675
  H 0.384117 0.037299 -1.565929
  H 1.421030 -1.365966 -1.335058
  H 0.583305 -0.210520 -4.039419
  H -0.079856 -1.666982 -3.296440
  H 1.606496 -1.628743 -3.813124
 27
 -1.922340
  C 1.187914 2.223023 0.126110
  C 2.112531 1.072630 0.382291
  C 2.180479 0.464164 1.562634
  C 2.544516 -0.961509 1.860744
  C 3.553808 -1.087813 3.001510
  C 3.019397 0.639896 -0.737505
  C 2.410513 0.365145 -2.110187
  C 1.199161 -0.563889 -2.051804
  C 0.718646 -0.945304 -3.447024
  H 3.780654 1.426823 -0.834519
  H 0.785252 2.611482 1.059048
  H 0.356041 1.875902 -0.483567
  H 1.681738 3.032643 -0.411178
  H 1.741069 0.934885 2.438685
  H 3.591102 -0.216173 -0.366775
  H 2.928596 -1.476903 0.980178
  H 1.614483 -1.459595 2.152212
  H 4.495202 -0.616425 2.727318
  H 3.744690 -2.133642 3.232670
  H 3.176894 -0.600804 3.898492
  H 3.173601 -0.109205 -2.733107
  H 2.135890 1.306138 -2.591312
  H 0.382908 -0.082869 -1.512209
  H 1.469758 -1.466851 -1.499800
  H 0.455091 -0.055536 -4.015496
  H -0.157745 -1.586952 -3.389310
  H 1.497779 -1.477305 -3.989095
 27
 -8.199386
  C 1.355940 2.275251 0.130286
  C 2.125530 1.004931 0.352130
  C 2.036924 0.343802 1.499490
  C 2.554108 -1.023046 1.835615
  C 3.487183 -0.989553 3.046003
  C 3.048376 0.602260 -0.765745
  C 2.369655 0.382065 -2.118340
  C 1.235077 -0.636520 -2.037173
  C 0.647967 -0.937443 -3.410842
  H 3.795263 1.397935 -0.867458
  H 0.896269 2.618685 1.053830
  H 0.565321 2.106436 -0.599767
  H 2.002435 3.063008 -0.255040
  H 1.474802 0.774695 2.320987
  H 3.592496 -0.294866 -0.468335
  H 3.070965 -1.481826 0.993513
  H 1.690271 -1.652876 2.071707
  H 4.372353 -0.397707 2.822806
  H 3.801877 -1.995170 3.316544
  H 2.985139 -0.543448 3.901903
  H 3.117292 0.019700 -2.828808
  H 1.987360 1.330519 -2.500672
  H 0.449034 -0.258499 -1.380779
  H 1.614820 -1.559669 -1.593480
  H 0.300080 -0.022390 -3.886133
  H -0.193344 -1.621667 -3.327342
  H 1.396774 -1.392648 -4.055897
 27
 -9.618533
  C 1.479359 2.365900 0.175318
  C 2.138684 1.027943 0.359520
  C 1.900209 0.302103 1.443703
  C 2.438560 -1.050389 1.797893
  C 3.447778 -0.951431 2.942765
  C 3.068056 0.618816 -0.753044
  C 2.356703 0.384018 -2.088466
  C 1.325567 -0.738496 -2.004894
  C 0.645118 -0.982282 -3.345393
  H 3.809658 1.412299 -0.885220
  H 0.973064 2.680635 1.084440
  H 0.740901 2.319657 -0.624544
  H 2.216035 3.121870 -0.094492
  H 1.246710 0.714642 2.204645
  H 3.596047 -0.289639 -0.464730
  H 2.909355 -1.533072 0.941166
  H 1.603294 -1.683482 2.114824
  H 4.298711 -0.343991 2.641874
  H 3.807595 -1.939574 3.223386
  H 2.989565 -0.489551 3.815089
  H 3.104727 0.128860 -2.843047
  H 1.866391 1.303894 -2.412045
  H 0.574400 -0.482655 -1.253695
  H 1.818221 -1.656343 -1.676781
  H 0.146393 -0.079031 -3.690679
  H -0.096981 -1.772117 -3.260837
  H 1.375846 -1.276627 -4.097751
