 22
 0.000000
  C 1.031051 0.121082 0.312747
  C 2.500923 0.148125 0.361447
  C 3.241485 0.608389 1.548003
  C 2.422138 1.066827 2.743409
  H 3.091917 1.377577 3.542863
  C 3.168944 -0.291307 -0.775523
  C 4.557081 -0.373045 -0.958654
  C 5.173855 -0.850161 -2.092031
  C 4.546895 -1.361446 -3.308613
  H 3.462133 -1.353269 -3.295353
  H 6.257121 -0.856212 -2.098565
  H 0.563162 0.465175 1.227068
  H 0.687009 -0.893034 0.093442
  H 0.678547 0.732364 -0.519883
  H 3.905108 1.423314 1.238739
  H 3.910422 -0.199017 1.865126
  H 1.795496 0.264933 3.126821
  H 1.789858 1.914590 2.490209
  H 2.541150 -0.613293 -1.595428
  H 5.198055 -0.038931 -0.154634
  H 4.904027 -2.376337 -3.493443
  H 4.908551 -0.786197 -4.163176
 22
 -0.134919
  C 1.025853 0.138197 0.313600
  C 2.494865 0.173011 0.340520
  C 3.240940 0.616143 1.536358
  C 2.422492 1.052248 2.742376
  H 3.092920 1.347073 3.545061
  C 3.159471 -0.265742 -0.801403
  C 4.547016 -0.384732 -0.958479
  C 5.171729 -0.858500 -2.086950
  C 4.552647 -1.333987 -3.321794
  H 3.469691 -1.290548 -3.326866
  H 6.253463 -0.894384 -2.072022
  H 0.563523 0.663431 1.140255
  H 0.726027 -0.913121 0.364411
  H 0.638930 0.505489 -0.635934
  H 3.903193 1.437589 1.239106
  H 3.911738 -0.195308 1.841502
  H 1.796341 0.243599 3.110941
  H 1.792402 1.907295 2.509305
  H 2.537354 -0.554279 -1.636863
  H 5.181690 -0.086131 -0.136199
  H 4.878465 -2.359086 -3.512197
  H 4.948108 -0.760154 -4.162855
 22
 1.865275
  C 1.027780 0.137383 0.328861
  C 2.492899 0.156260 0.344721
  C 3.243049 0.629105 1.528226
  C 2.414878 1.083419 2.721626
  H 3.079240 1.408406 3.518145
  C 3.144724 -0.297791 -0.797552
  C 4.527460 -0.497428 -0.921163
  C 5.163238 -0.918486 -2.065085
  C 4.560519 -1.245760 -3.356067
  H 3.486826 -1.104421 -3.396101
  H 6.238311 -1.034974 -2.016764
  H 0.538007 0.772757 1.052250
  H 0.906453 -0.907469 0.654687
  H 0.594068 0.188355 -0.663413
  H 3.880899 1.458862 1.203019
  H 3.927762 -0.160956 1.853562
  H 1.800149 0.274937 3.108649
  H 1.773883 1.923975 2.467527
  H 2.527731 -0.508830 -1.658900
  H 5.150159 -0.300682 -0.060445
  H 4.801698 -2.280143 -3.611498
  H 5.037745 -0.648062 -4.135550
 22
 12.570312
  C 1.018533 0.212654 0.317742
  C 2.469743 0.155081 0.342394
  C 3.238394 0.652088 1.512889
  C 2.412581 1.059024 2.727296
  H 3.080817 1.359458 3.530336
  C 3.124556 -0.267290 -0.815319
  C 4.504684 -0.502130 -0.919180
  C 5.149156 -0.954194 -2.050981
  C 4.561824 -1.245009 -3.362349
  H 3.499776 -1.040095 -3.426943
  H 6.214763 -1.129352 -1.977206
  H 0.480273 0.745796 1.081673
  H 1.196743 -0.856313 0.668116
  H 0.532607 0.111162 -0.642547
  H 3.811686 1.518787 1.169387
  H 3.965596 -0.104313 1.819266
  H 1.806975 0.233595 3.092577
  H 1.767587 1.905338 2.506290
  H 2.519152 -0.429800 -1.694803
  H 5.118238 -0.331790 -0.046000
  H 4.743691 -2.292192 -3.612390
  H 5.088537 -0.671871 -4.127400
 22
 28.204751
  C 1.006596 0.320676 0.301568
  C 2.425716 0.148283 0.338588
  C 3.226479 0.589821 1.528696
  C 2.410309 1.039056 2.735486
  H 3.086700 1.342303 3.530367
  C 3.104794 -0.237254 -0.843623
  C 4.481816 -0.457819 -0.939030
  C 5.138240 -0.910710 -2.060420
  C 4.551144 -1.292457 -3.353455
  H 3.473389 -1.190007 -3.394599
  H 6.214242 -1.005866 -2.001566
  H 0.455472 0.760751 1.111709
  H 1.508095 -0.794802 0.615164
  H 0.479881 0.150919 -0.624941
  H 3.855114 1.419809 1.198771
  H 3.893072 -0.217762 1.837734
  H 1.788666 0.235059 3.121529
  H 1.784599 1.894699 2.496941
  H 2.504554 -0.396265 -1.727067
  H 5.092915 -0.255214 -0.071469
  H 4.822923 -2.324546 -3.581050
  H 5.000707 -0.690688 -4.144997
 22
 38.352285
  C 0.982056 0.342158 0.309815
  C 2.387817 0.105588 0.367161
  C 3.209795 0.578549 1.549191
  C 2.399613 1.077587 2.740190
  H 3.079671 1.383080 3.530884
  C 3.085188 -0.280661 -0.837354
  C 4.455185 -0.491816 -0.933401
  C 5.112136 -0.924237 -2.058803
  C 4.528986 -1.263994 -3.365821
  H 3.454979 -1.126916 -3.418297
  H 6.184737 -1.043644 -1.992242
  H 0.436304 0.766570 1.131014
  H 1.797864 -0.910579 0.575147
  H 0.440470 0.141691 -0.600284
  H 3.849856 1.388653 1.195683
  H 3.862260 -0.229537 1.883729
  H 1.755434 0.299266 3.141254
  H 1.797145 1.942789 2.477135
  H 2.480848 -0.426953 -1.719926
  H 5.063734 -0.300528 -0.061864
  H 4.770635 -2.300508 -3.608227
  H 5.007184 -0.663704 -4.141111
 22
 41.317336
  C 0.982745 0.385899 0.305368
  C 2.375476 0.096199 0.380288
  C 3.208558 0.569385 1.565658
  C 2.400466 1.088853 2.748991
  H 3.081972 1.400714 3.536247
  C 3.083158 -0.286138 -0.845085
  C 4.451573 -0.488727 -0.945389
  C 5.102443 -0.913140 -2.078295
  C 4.511901 -1.271939 -3.373675
  H 3.432775 -1.179472 -3.409720
  H 6.179072 -1.001927 -2.025968
  H 0.446909 0.819054 1.127700
  H 2.075658 -1.006252 0.481605
  H 0.431912 0.167293 -0.593252
  H 3.861793 1.368957 1.211817
  H 3.844726 -0.245982 1.910963
  H 1.751111 0.318953 3.158137
  H 1.802588 1.953574 2.474418
  H 2.473774 -0.408794 -1.728390
  H 5.062859 -0.295694 -0.076085
  H 4.793552 -2.296271 -3.623639
  H 4.954445 -0.651037 -4.154384
 22
 42.678201
  C 0.982458 0.374540 0.329834
  C 2.359502 0.102296 0.394551
  C 3.200140 0.566442 1.577228
  C 2.399687 1.115350 2.753270
  H 3.086330 1.429729 3.535476
  C 3.063000 -0.312058 -0.835839
  C 4.440742 -0.508518 -0.942656
  C 5.084210 -0.913901 -2.080926
  C 4.489478 -1.259827 -3.378641
  H 3.409759 -1.173617 -3.411353
  H 6.161573 -0.994622 -2.037150
  H 0.454926 0.821217 1.149739
  H 2.319570 -1.069411 0.312909
  H 0.419035 0.140303 -0.556533
  H 3.872541 1.348800 1.219780
  H 3.818049 -0.256674 1.935232
  H 1.738402 0.359646 3.170130
  H 1.812418 1.983357 2.467636
  H 2.453808 -0.412768 -1.722251
  H 5.052346 -0.322201 -0.072333
  H 4.776140 -2.278652 -3.642878
  H 4.927209 -0.626484 -4.152117
 22
 38.443781
  C 0.981560 0.352296 0.362174
  C 2.330271 0.113801 0.420478
  C 3.180319 0.565494 1.583347
  C 2.403457 1.148789 2.759191
  H 3.102900 1.453749 3.533302
  C 3.016433 -0.395371 -0.793548
  C 4.420235 -0.570484 -0.914235
  C 5.063596 -0.930328 -2.059380
  C 4.470337 -1.231975 -3.370184
  H 3.389968 -1.153786 -3.399192
  H 6.141695 -1.007033 -2.019507
  H 0.452225 0.793060 1.184920
  H 2.498976 -1.161738 0.076638
  H 0.403738 0.112424 -0.513224
  H 3.872196 1.323977 1.210033
  H 3.779015 -0.269634 1.950902
  H 1.726389 0.415779 3.190290
  H 1.837016 2.028039 2.464605
  H 2.407432 -0.460256 -1.685458
  H 5.027385 -0.399985 -0.037692
  H 4.766492 -2.237165 -3.674171
  H 4.900286 -0.565017 -4.119111
 22
 26.615187
  C 0.987018 0.329687 0.377806
  C 2.319544 0.119218 0.441727
  C 3.186604 0.574239 1.569533
  C 2.446976 1.241876 2.724517
  H 3.164485 1.547329 3.481749
  C 2.965498 -0.529992 -0.746500
  C 4.397327 -0.662255 -0.877969
  C 5.054712 -0.926353 -2.039909
  C 4.473473 -1.129831 -3.371480
  H 3.391714 -1.072204 -3.399282
  H 6.133907 -0.992813 -1.997543
  H 0.446912 0.798110 1.179714
  H 2.591634 -1.415031 -0.132298
  H 0.410934 0.066569 -0.492454
  H 3.916497 1.277175 1.158475
  H 3.746936 -0.274374 1.969739
  H 1.740753 0.559736 3.190620
  H 1.917151 2.130848 2.392666
  H 2.370342 -0.511969 -1.652290
  H 4.991855 -0.538994 0.014866
  H 4.795582 -2.098032 -3.759297
  H 4.892596 -0.394742 -4.061383
 22
 18.360280
  C 0.984572 0.334147 0.389010
  C 2.312138 0.102875 0.445625
  C 3.190635 0.547001 1.560428
  C 2.492423 1.287517 2.694369
  H 3.225558 1.578445 3.442309
  C 2.916920 -0.649278 -0.699170
  C 4.370495 -0.719412 -0.837691
  C 5.036589 -0.898420 -2.009975
  C 4.461167 -1.062129 -3.348235
  H 3.377736 -1.054079 -3.372868
  H 6.117820 -0.924689 -1.970480
  H 0.455801 0.875238 1.152097
  H 2.596049 -1.656125 -0.350558
  H 0.391580 0.000255 -0.445615
  H 3.967484 1.189952 1.133076
  H 3.702181 -0.323563 1.981693
  H 1.751774 0.658731 3.181710
  H 2.006797 2.190817 2.334331
  H 2.377600 -0.491987 -1.631581
  H 4.958833 -0.629785 0.062759
  H 4.830436 -1.992972 -3.783901
  H 4.845434 -0.278468 -4.005036
 22
 16.960980
  C 0.966625 0.267450 0.449887
  C 2.308507 0.108026 0.447409
  C 3.195379 0.562826 1.548831
  C 2.512043 1.293355 2.697535
  H 3.257907 1.606773 3.423491
  C 2.905080 -0.579328 -0.734845
  C 4.364310 -0.699381 -0.833647
  C 5.040972 -0.937082 -1.988514
  C 4.476442 -1.095761 -3.333070
  H 3.394040 -1.055093 -3.369640
  H 6.118547 -1.017850 -1.930926
  H 0.445412 0.769934 1.243739
  H 2.487298 -1.602310 -0.686916
  H 0.356921 -0.096601 -0.359820
  H 3.964696 1.210813 1.114103
  H 3.721212 -0.308198 1.954226
  H 1.800522 0.650356 3.209278
  H 1.993613 2.181818 2.345986
  H 2.471765 -0.181121 -1.658462
  H 4.940407 -0.620225 0.075149
  H 4.825099 -2.039317 -3.757391
  H 4.889355 -0.328177 -3.991918
