 26
 0.000000
  C 1.015866 0.113612 0.334153
  C 2.491058 0.127978 0.370822
  C 3.244701 0.604233 1.555635
  C 2.437990 1.087914 2.757834
  C 3.368698 1.538701 3.879915
  C 3.151640 -0.327929 -0.763308
  C 4.533975 -0.394449 -0.929817
  C 5.180686 -0.851435 -2.070628
  C 4.525277 -1.344412 -3.299882
  H 3.447405 -1.335210 -3.276392
  O 6.489183 -0.877234 -2.137568
  H 0.559869 0.480183 1.245551
  H 0.659953 -0.900953 0.148431
  H 0.660437 0.717571 -0.502158
  H 3.904508 1.419398 1.237333
  H 3.904049 -0.204661 1.890385
  H 1.800243 0.285888 3.133637
  H 1.800896 1.927303 2.473662
  H 4.004070 0.720502 4.211852
  H 2.791268 1.882547 4.734612
  H 4.004736 2.358523 3.553234
  H 2.528320 -0.656309 -1.580858
  H 5.152832 -0.064292 -0.107412
  H 4.878210 -2.358000 -3.496221
  H 4.877886 -0.747064 -4.142054
  H 6.942253 -0.555854 -1.336996
 26
 5.593290
  C 1.016598 0.120927 0.351149
  C 2.488459 0.129025 0.374021
  C 3.250172 0.602630 1.552760
  C 2.450665 1.088243 2.758154
  C 3.389415 1.536176 3.874442
  C 3.135806 -0.330635 -0.768783
  C 4.476832 -0.414660 -0.979143
  C 5.191262 -0.857409 -2.085960
  C 4.576724 -1.356788 -3.329113
  H 3.495127 -1.348424 -3.304803
  O 6.492734 -0.857475 -2.092895
  H 0.572392 0.489524 1.266860
  H 0.655199 -0.891351 0.165089
  H 0.656579 0.723338 -0.483986
  H 3.910719 1.417424 1.233926
  H 3.909343 -0.206949 1.887335
  H 1.813567 0.287596 3.137254
  H 1.815290 1.929603 2.476844
  H 4.024187 0.716018 4.202529
  H 2.818690 1.881878 4.732577
  H 4.025980 2.353900 3.543802
  H 2.482774 -0.654100 -1.574367
  H 4.902217 -0.057549 -0.089240
  H 4.934737 -2.368569 -3.519931
  H 4.932724 -0.756542 -4.166463
  H 6.906315 -0.527553 -1.274218
 26
 15.169674
  C 0.990663 0.122714 0.359023
  C 2.473115 0.125047 0.360942
  C 3.254688 0.601776 1.545381
  C 2.469694 1.089929 2.763150
  C 3.427209 1.533477 3.867201
  C 3.087203 -0.339067 -0.793968
  C 4.445444 -0.430442 -1.023310
  C 5.211505 -0.857078 -2.084970
  C 4.633574 -1.365264 -3.353310
  H 3.559380 -1.358356 -3.341663
  O 6.515991 -0.838974 -2.036515
  H 0.556942 0.493197 1.280939
  H 0.622606 -0.888671 0.175041
  H 0.620775 0.724128 -0.473779
  H 3.911500 1.420918 1.230106
  H 3.913049 -0.206644 1.883731
  H 1.836192 0.290414 3.151372
  H 1.835169 1.935180 2.491392
  H 4.063259 0.710760 4.186022
  H 2.869896 1.880765 4.733888
  H 4.062350 2.349168 3.528734
  H 2.390943 -0.648039 -1.558905
  H 4.655298 -0.046942 -0.072751
  H 4.995089 -2.378357 -3.535291
  H 4.998563 -0.760825 -4.185254
  H 6.888825 -0.507396 -1.201502
 26
 28.757101
  C 1.012816 0.135619 0.387495
  C 2.485146 0.130623 0.376077
  C 3.257603 0.601038 1.546636
  C 2.462929 1.088357 2.758737
  C 3.411615 1.532893 3.868339
  C 3.093279 -0.338827 -0.790999
  C 4.442512 -0.442121 -1.050462
  C 5.225362 -0.865029 -2.106146
  C 4.655640 -1.372266 -3.366198
  H 3.563636 -1.365834 -3.349196
  O 6.537893 -0.839603 -2.049324
  H 0.592445 0.507531 1.310880
  H 0.638279 -0.873720 0.207827
  H 0.638656 0.739218 -0.441513
  H 3.917124 1.424427 1.234854
  H 3.916776 -0.209532 1.891498
  H 1.827644 0.288118 3.142720
  H 1.828962 1.933121 2.482302
  H 4.046585 0.710607 4.192136
  H 2.847514 1.879525 4.730576
  H 4.048133 2.349613 3.534166
  H 2.356728 -0.648615 -1.559979
  H 4.503400 -0.051114 -0.078739
  H 5.018489 -2.382137 -3.546518
  H 5.017960 -0.768978 -4.195668
  H 6.896325 -0.506411 -1.220643
 26
 43.080542
  C 0.995230 0.133053 0.381568
  C 2.476036 0.128715 0.370900
  C 3.258407 0.601103 1.546487
  C 2.466955 1.092482 2.769383
  C 3.423964 1.536134 3.876284
  C 3.083120 -0.338492 -0.791242
  C 4.452735 -0.447140 -1.063838
  C 5.237389 -0.867436 -2.112506
  C 4.672765 -1.372298 -3.366358
  H 3.580595 -1.363931 -3.345777
  O 6.549110 -0.841077 -2.052096
  H 0.573835 0.505043 1.305509
  H 0.619176 -0.879596 0.201701
  H 0.619168 0.738587 -0.449711
  H 3.920011 1.427260 1.232053
  H 3.919970 -0.213131 1.891045
  H 1.831901 0.293311 3.157324
  H 1.833032 1.938857 2.496805
  H 4.059075 0.712980 4.196907
  H 2.864804 1.884001 4.741915
  H 4.060222 2.351602 3.539079
  H 2.331656 -0.642499 -1.546131
  H 4.371506 -0.059413 -0.099830
  H 5.034971 -2.383162 -3.546184
  H 5.035377 -0.768583 -4.196688
  H 6.909659 -0.502449 -1.207902
 26
 56.598028
  C 1.000291 0.135893 0.389723
  C 2.475166 0.134913 0.384950
  C 3.253201 0.609239 1.565100
  C 2.462574 1.095240 2.777151
  C 3.412716 1.538543 3.882465
  C 3.090659 -0.331665 -0.776813
  C 4.473766 -0.448781 -1.070040
  C 5.245951 -0.870226 -2.119982
  C 4.673187 -1.384055 -3.395926
  H 3.587978 -1.376771 -3.380933
  O 6.553269 -0.845522 -2.060297
  H 0.576388 0.506191 1.310303
  H 0.628753 -0.872890 0.210064
  H 0.627553 0.738399 -0.438615
  H 3.910270 1.431469 1.256704
  H 3.911308 -0.197327 1.910388
  H 1.829095 0.296105 3.162191
  H 1.828977 1.939060 2.503319
  H 4.047825 0.716938 4.203930
  H 2.851224 1.884571 4.745302
  H 4.047811 2.354548 3.547088
  H 2.345527 -0.634212 -1.527692
  H 4.287235 -0.059199 -0.101994
  H 5.035949 -2.398268 -3.576075
  H 5.037998 -0.779786 -4.228921
  H 6.912095 -0.509376 -1.218310
 26
 67.628480
  C 1.017169 0.129615 0.373824
  C 2.488652 0.135054 0.385878
  C 3.255196 0.613920 1.577646
  C 2.449008 1.097678 2.783463
  C 3.392208 1.547976 3.906350
  C 3.119465 -0.327436 -0.765656
  C 4.516634 -0.445236 -1.060954
  C 5.249137 -0.876315 -2.134951
  C 4.646207 -1.381658 -3.389711
  H 3.567479 -1.365992 -3.354108
  O 6.561123 -0.866088 -2.112542
  H 0.580569 0.500275 1.294719
  H 0.651551 -0.881524 0.190855
  H 0.650550 0.731559 -0.459027
  H 3.912691 1.437590 1.277367
  H 3.913419 -0.188188 1.929842
  H 1.809315 0.288463 3.164733
  H 1.809066 1.946829 2.499559
  H 4.030913 0.724750 4.236782
  H 2.817967 1.893391 4.767202
  H 4.031128 2.371059 3.576302
  H 2.380507 -0.634384 -1.527768
  H 4.241347 -0.063393 -0.111575
  H 4.991450 -2.383895 -3.574546
  H 4.993213 -0.789818 -4.217390
  H 6.945464 -0.532762 -1.279859
 26
 76.785154
  C 1.021778 0.127662 0.365827
  C 2.499000 0.140023 0.396796
  C 3.252711 0.621385 1.596510
  C 2.439771 1.100397 2.790836
  C 3.367978 1.549584 3.913243
  C 3.150041 -0.318891 -0.746037
  C 4.562078 -0.437474 -1.042728
  C 5.255808 -0.878882 -2.141814
  C 4.619738 -1.382148 -3.384801
  H 3.523629 -1.358896 -3.326499
  O 6.565766 -0.880287 -2.154158
  H 0.571497 0.496728 1.282588
  H 0.661998 -0.885096 0.177847
  H 0.661967 0.727698 -0.471447
  H 3.912557 1.444599 1.301352
  H 3.912517 -0.177599 1.951634
  H 1.802220 0.292575 3.164737
  H 1.802914 1.943855 2.503064
  H 4.002362 0.732512 4.245634
  H 2.790241 1.891214 4.764900
  H 4.003276 2.369226 3.589735
  H 2.425918 -0.629942 -1.518822
  H 4.215218 -0.060705 -0.106560
  H 4.960552 -2.402059 -3.578374
  H 4.960248 -0.783871 -4.233553
  H 6.973710 -0.547868 -1.330778
 26
 84.322540
  C 1.027946 0.141727 0.354999
  C 2.502777 0.152071 0.398109
  C 3.246252 0.624068 1.599644
  C 2.422238 1.102237 2.803186
  C 3.347370 1.544946 3.938988
  C 3.167358 -0.302092 -0.742106
  C 4.586864 -0.427780 -1.039753
  C 5.251573 -0.880221 -2.152660
  C 4.597679 -1.413947 -3.375880
  H 3.523458 -1.405721 -3.299369
  O 6.568567 -0.864010 -2.194764
  H 0.580433 0.500327 1.254138
  H 0.667174 -0.864934 0.161224
  H 0.675089 0.745104 -0.476687
  H 3.914042 1.451613 1.307875
  H 3.906510 -0.186320 1.951681
  H 1.784174 0.299897 3.168553
  H 1.793250 1.943590 2.521070
  H 3.980502 0.720902 4.271744
  H 2.761897 1.885127 4.794813
  H 3.989318 2.368756 3.622559
  H 2.451548 -0.606835 -1.525553
  H 4.193108 -0.060086 -0.116666
  H 4.943703 -2.434545 -3.559218
  H 4.911452 -0.819193 -4.239045
  H 6.993911 -0.509651 -1.385617
 26
 88.636320
  C 1.023083 0.194834 0.345974
  C 2.509966 0.200383 0.390442
  C 3.247989 0.642185 1.604343
  C 2.414421 1.080037 2.807587
  C 3.321829 1.489664 3.958122
  C 3.178488 -0.226247 -0.746788
  C 4.612648 -0.399743 -1.066920
  C 5.254244 -0.868546 -2.166813
  C 4.593060 -1.524661 -3.322078
  H 3.522796 -1.577733 -3.204124
  O 6.566030 -0.780303 -2.280999
  H 0.571279 0.538246 1.271260
  H 0.655140 -0.810573 0.128197
  H 0.669032 0.826726 -0.472234
  H 3.913785 1.475611 1.346037
  H 3.901290 -0.178919 1.929578
  H 1.775092 0.267661 3.142125
  H 1.786460 1.926458 2.544331
  H 3.951447 0.661823 4.271342
  H 2.729314 1.801578 4.812909
  H 3.961044 2.319720 3.673116
  H 2.473196 -0.493987 -1.549544
  H 4.182832 -0.022308 -0.128222
  H 4.992373 -2.526006 -3.468917
  H 4.841642 -0.955442 -4.215892
  H 7.002004 -0.354929 -1.520266
 26
 90.221316
  C 1.007770 0.302868 0.306022
  C 2.497362 0.269485 0.372708
  C 3.235540 0.643269 1.620431
  C 2.397004 1.044581 2.831047
  C 3.306203 1.386462 4.016996
  C 3.176044 -0.113344 -0.762031
  C 4.605033 -0.336987 -1.147715
  C 5.255636 -0.834229 -2.203287
  C 4.619496 -1.733261 -3.214963
  H 3.572833 -1.915326 -3.001142
  O 6.539784 -0.600845 -2.444902
  H 0.558141 0.609999 1.240432
  H 0.621496 -0.672964 0.043238
  H 0.681646 0.984446 -0.472302
  H 3.918249 1.477256 1.406160
  H 3.865068 -0.208840 1.919363
  H 1.734159 0.227844 3.121441
  H 1.788585 1.918041 2.596099
  H 3.919386 0.526899 4.302959
  H 2.709358 1.674118 4.880034
  H 3.970199 2.219711 3.774533
  H 2.499868 -0.309393 -1.604230
  H 4.172359 0.027378 -0.167870
  H 5.153392 -2.677207 -3.254172
  H 4.729088 -1.255038 -4.193495
  H 6.959661 -0.003555 -1.802516
 26
 93.553266
  C 1.016112 0.337446 0.291739
  C 2.502346 0.304599 0.375861
  C 3.231995 0.646937 1.639399
  C 2.385416 1.014925 2.858491
  C 3.279289 1.325230 4.044563
  C 3.187281 -0.048383 -0.761573
  C 4.618339 -0.288759 -1.194684
  C 5.253339 -0.815845 -2.232873
  C 4.617002 -1.825426 -3.144864
  H 3.589964 -2.038588 -2.864150
  O 6.517537 -0.550607 -2.543217
  H 0.556757 0.617517 1.228716
  H 0.632230 -0.639358 -0.003916
  H 0.695460 1.045868 -0.475516
  H 3.911898 1.486700 1.448749
  H 3.859927 -0.206681 1.918604
  H 1.726474 0.191415 3.124866
  H 1.776354 1.891577 2.646225
  H 3.887698 0.469402 4.306715
  H 2.680646 1.587108 4.908830
  H 3.934087 2.157704 3.827764
  H 2.529640 -0.216144 -1.617326
  H 4.170403 0.084659 -0.202119
  H 5.196039 -2.736624 -3.130917
  H 4.656256 -1.432267 -4.141994
  H 6.935493 0.109524 -1.966344
 26
 95.940489
  C 1.015815 0.372727 0.284630
  C 2.504469 0.339987 0.375688
  C 3.225695 0.648656 1.652305
  C 2.368454 0.976551 2.873832
  C 3.256135 1.259047 4.083650
  C 3.196320 0.017411 -0.767643
  C 4.634477 -0.237416 -1.232958
  C 5.246880 -0.809545 -2.259472
  C 4.625045 -1.921355 -3.056237
  H 3.623012 -2.161778 -2.707723
  O 6.486788 -0.522115 -2.645339
  H 0.549543 0.625090 1.232284
  H 0.637075 -0.588421 -0.039035
  H 0.697948 1.101582 -0.459816
  H 3.902026 1.496103 1.490398
  H 3.856566 -0.207868 1.911112
  H 1.712398 0.141142 3.110462
  H 1.756459 1.854051 2.681421
  H 3.873411 0.391307 4.328223
  H 2.646571 1.492792 4.953368
  H 3.912541 2.107175 3.896395
  H 2.549049 -0.128484 -1.635103
  H 4.164685 0.172257 -0.246564
  H 5.256586 -2.798548 -2.991214
  H 4.597847 -1.610924 -4.096832
  H 6.897289 0.200515 -2.141066
 26
 98.659905
  C 1.017332 0.396076 0.283274
  C 2.500705 0.356761 0.384431
  C 3.218046 0.639945 1.669918
  C 2.357154 0.943640 2.896953
  C 3.239601 1.200048 4.113000
  C 3.199139 0.055295 -0.763233
  C 4.648408 -0.214549 -1.247196
  C 5.240885 -0.820364 -2.263095
  C 4.635592 -1.998778 -2.973749
  H 3.661989 -2.262248 -2.570208
  O 6.447807 -0.496819 -2.721546
  H 0.545807 0.629476 1.233597
  H 0.637625 -0.559450 -0.064808
  H 0.706909 1.143758 -0.449384
  H 3.894224 1.488273 1.526200
  H 3.848331 -0.220022 1.911836
  H 1.700588 0.104917 3.114547
  H 1.746004 1.824586 2.720939
  H 3.854494 0.328544 4.340576
  H 2.627627 1.416182 4.985540
  H 3.895725 2.049629 3.945705
  H 2.568029 -0.072891 -1.642805
  H 4.148472 0.236030 -0.271589
  H 5.310390 -2.844161 -2.889414
  H 4.549839 -1.749370 -4.025841
  H 6.836096 0.279203 -2.284608
