 12
 0.000000
  C 0.966929 0.156133 0.429764
  C 2.426197 0.139622 0.392227
  C 3.228798 0.592278 1.522343
  H 2.634893 0.925771 2.366708
  C 3.056713 -0.321049 -0.751498
  H 4.129518 -0.358074 -0.840004
  H 0.573446 0.541655 1.365483
  H 0.567536 -0.848679 0.259236
  H 0.571659 0.747270 -0.401770
  H 3.902791 1.395165 1.206014
  H 3.909614 -0.203542 1.841541
  H 2.473166 -0.658743 -1.592757
 12
 3.875641
  C 0.958776 0.236261 0.431677
  C 2.389386 0.143725 0.399027
  C 3.220531 0.563559 1.530026
  H 2.640907 0.887952 2.382854
  C 3.028106 -0.333651 -0.752671
  H 4.103836 -0.360193 -0.821241
  H 0.530761 0.597790 1.359197
  H 0.814671 -0.833649 0.262561
  H 0.504142 0.731104 -0.421639
  H 3.874222 1.375217 1.202534
  H 3.919240 -0.217940 1.828545
  H 2.463635 -0.682718 -1.603089
 12
 10.663421
  C 0.953826 0.305586 0.423339
  C 2.374370 0.152009 0.395263
  C 3.212365 0.524623 1.538180
  H 2.628506 0.828324 2.409389
  C 3.011909 -0.335369 -0.760581
  H 4.098095 -0.341264 -0.840720
  H 0.518176 0.681043 1.331762
  H 1.020159 -0.792269 0.353576
  H 0.449222 0.669912 -0.471481
  H 3.829800 1.371075 1.208580
  H 3.920923 -0.260194 1.818279
  H 2.451470 -0.703577 -1.609875
 12
 16.693853
  C 0.951843 0.350947 0.410531
  C 2.367075 0.143291 0.377205
  C 3.202638 0.497617 1.544443
  H 2.616819 0.778388 2.409880
  C 3.004205 -0.334632 -0.780371
  H 4.082940 -0.326923 -0.863430
  H 0.519709 0.768756 1.303561
  H 1.182705 -0.750337 0.462634
  H 0.414178 0.592447 -0.497512
  H 3.800649 1.355371 1.238340
  H 3.904896 -0.287622 1.813984
  H 2.451034 -0.702105 -1.623602
 12
 20.975650
  C 0.950702 0.385356 0.395731
  C 2.359823 0.135960 0.368949
  C 3.197638 0.478153 1.549393
  H 2.609782 0.737332 2.414193
  C 2.999603 -0.331661 -0.799475
  H 4.077496 -0.318600 -0.877898
  H 0.515320 0.849377 1.268973
  H 1.311397 -0.709807 0.571970
  H 0.385719 0.500562 -0.522896
  H 3.794264 1.341235 1.276368
  H 3.891736 -0.313338 1.804714
  H 2.442276 -0.687070 -1.645703
 12
 24.620515
  C 0.950750 0.409740 0.384854
  C 2.351421 0.119484 0.369896
  C 3.193706 0.464919 1.550827
  H 2.600399 0.716417 2.422785
  C 2.998532 -0.330548 -0.809065
  H 4.071402 -0.324059 -0.877342
  H 0.514575 0.898463 1.242616
  H 1.404039 -0.679088 0.640307
  H 0.371891 0.431974 -0.525857
  H 3.795461 1.334853 1.289858
  H 3.884682 -0.335080 1.800651
  H 2.442452 -0.660802 -1.667982
 12
 28.240851
  C 0.948518 0.426246 0.379539
  C 2.345806 0.110808 0.372301
  C 3.191100 0.460225 1.554291
  H 2.597793 0.705093 2.424367
  C 2.996170 -0.335500 -0.809306
  H 4.073832 -0.326406 -0.877011
  H 0.511365 0.911129 1.243090
  H 1.479027 -0.661014 0.656192
  H 0.367084 0.416286 -0.528766
  H 3.790111 1.330711 1.296573
  H 3.885794 -0.347522 1.805341
  H 2.442826 -0.665682 -1.672222
 12
 31.114305
  C 0.948884 0.446893 0.368801
  C 2.341506 0.096995 0.384216
  C 3.199158 0.455345 1.561487
  H 2.608586 0.697678 2.437956
  C 2.995533 -0.339120 -0.809623
  H 4.068639 -0.337614 -0.871840
  H 0.500390 0.922083 1.226353
  H 1.535270 -0.665122 0.672730
  H 0.366410 0.391776 -0.536466
  H 3.796042 1.325974 1.304458
  H 3.889252 -0.345877 1.804803
  H 2.437588 -0.647967 -1.673739
 12
 34.074003
  C 0.949128 0.460973 0.364082
  C 2.339908 0.087621 0.391347
  C 3.202254 0.452115 1.567091
  H 2.612093 0.690005 2.445235
  C 2.996605 -0.344568 -0.810334
  H 4.071013 -0.344403 -0.871579
  H 0.497858 0.929680 1.223771
  H 1.586806 -0.669853 0.680108
  H 0.367348 0.386249 -0.540036
  H 3.793637 1.326107 1.310911
  H 3.895862 -0.348130 1.808361
  H 2.437228 -0.649884 -1.675013
 12
 36.610659
  C 0.951617 0.476163 0.357995
  C 2.339238 0.077580 0.399901
  C 3.206959 0.449474 1.573174
  H 2.618424 0.681613 2.452775
  C 2.998384 -0.349450 -0.810980
  H 4.071312 -0.352414 -0.870258
  H 0.495512 0.937731 1.218379
  H 1.634009 -0.686545 0.689219
  H 0.371196 0.383900 -0.544294
  H 3.791178 1.327275 1.317603
  H 3.904719 -0.346727 1.810886
  H 2.435727 -0.649299 -1.675327
 12
 38.770332
  C 0.956125 0.491124 0.351679
  C 2.339400 0.065964 0.407837
  C 3.211846 0.446857 1.578664
  H 2.624414 0.672295 2.460015
  C 2.999946 -0.355568 -0.809857
  H 4.072177 -0.360808 -0.867902
  H 0.496529 0.947572 1.212470
  H 1.679556 -0.710701 0.698778
  H 0.375847 0.384294 -0.548411
  H 3.787363 1.329709 1.323338
  H 3.915606 -0.344156 1.813006
  H 2.433703 -0.646439 -1.675230
 12
 39.951896
  C 0.964197 0.510618 0.344500
  C 2.337046 0.051129 0.417020
  C 3.216099 0.444707 1.582611
  H 2.631404 0.659450 2.468230
  C 3.001694 -0.363617 -0.806868
  H 4.073259 -0.375978 -0.859882
  H 0.500673 0.961787 1.205875
  H 1.726102 -0.752040 0.710874
  H 0.380791 0.390010 -0.551906
  H 3.777080 1.336471 1.325688
  H 3.931259 -0.337629 1.810849
  H 2.433559 -0.635962 -1.677191
 12
 40.813096
  C 0.973223 0.531786 0.340099
  C 2.336604 0.037545 0.423863
  C 3.219445 0.443302 1.587375
  H 2.635464 0.641399 2.477538
  C 3.002262 -0.367792 -0.806486
  H 4.072844 -0.401435 -0.851539
  H 0.507981 0.978540 1.202008
  H 1.784921 -0.802937 0.714949
  H 0.386934 0.405893 -0.553983
  H 3.761608 1.347624 1.333275
  H 3.948999 -0.327232 1.807127
  H 2.432453 -0.631803 -1.679291
 12
 41.461397
  C 0.982029 0.549882 0.338474
  C 2.336017 0.025495 0.429200
  C 3.222523 0.441040 1.591179
  H 2.640108 0.620901 2.485708
  C 3.004114 -0.375603 -0.805209
  H 4.074569 -0.435581 -0.842878
  H 0.518406 0.993779 1.202514
  H 1.847118 -0.848795 0.715519
  H 0.394966 0.428095 -0.555372
  H 3.745240 1.357191 1.341067
  H 3.966801 -0.318047 1.801711
  H 2.434039 -0.627999 -1.681222
