19
 0
 C -3.67678000 -0.49534587 -0.31471712
 C -2.19891650 -0.77792041 -0.55582437
 C -1.92238788 -0.88532782 -2.05453818
 C -1.21582274 0.21438217 0.06761529
 C -1.69772744 1.47162455 0.74518687
 O 0.00000000 0.00000000 0.00000000
 H -4.29664277 -1.29365593 -0.73740228
 H -3.98823463 0.44659050 -0.77915036
 H -3.89831047 -0.44073275 0.75626915
 H -1.97557288 -1.74620123 -0.08889103
 H -2.09759955 0.07143879 -2.55856153
 H -2.56568299 -1.64073372 -2.51825576
 H -0.88254293 -1.17254077 -2.24502285
 H -2.78188323 1.54019715 0.81273092
 H -1.33429419 2.33756973 0.18544170
 H -1.29757062 1.49523239 1.76300680
 O 2.70000000 0.00000000 0.00000000
 H 3.20830891 -0.69766200 0.44029152
 H 3.36524409 0.49073311 -0.50555607
