 32
 0.000000
  C 0.984666 0.134045 0.385575
  C 2.463586 0.140026 0.399684
  C 3.238917 0.611832 1.573389
  C 2.450155 1.098950 2.786051
  C 3.388323 1.547577 3.901963
  C 3.088299 -0.322102 -0.750906
  C 4.465769 -0.411688 -0.974426
  C 5.127434 -0.865657 -2.106124
  C 4.618932 -1.387150 -3.406388
  C 3.125648 -1.501030 -3.691351
  C 2.890242 -2.062349 -5.090884
  O 6.453198 -0.866426 -2.108102
  H 0.521649 0.499970 1.296579
  H 0.624018 -0.881123 0.212896
  H 0.623605 0.747430 -0.441377
  H 3.895274 1.425575 1.244107
  H 3.895654 -0.203215 1.898615
  H 1.811595 0.299663 3.167413
  H 1.811242 1.939655 2.508431
  H 4.024470 0.728294 4.230904
  H 2.814066 1.891862 4.759130
  H 4.024071 2.366930 3.572416
  H 2.431140 -0.640218 -1.542751
  H 5.103083 -0.084833 -0.160172
  H 5.070555 -2.377525 -3.535605
  H 5.071020 -0.760922 -4.184183
  H 2.653256 -0.519298 -3.635085
  H 2.652731 -2.171463 -2.972336
  H 3.325293 -1.416172 -5.850256
  H 1.823272 -2.140403 -5.286333
  H 3.324775 -3.054415 -5.193111
  H 6.834781 -0.532572 -1.274643
 32
 -0.431463
  C 0.953310 0.213305 0.388844
  C 2.428139 0.194001 0.373138
  C 3.224531 0.626556 1.545752
  C 2.462330 1.068875 2.791532
  C 3.434965 1.446487 3.904377
  C 3.038963 -0.272490 -0.787818
  C 4.415142 -0.353456 -0.989920
  C 5.106953 -0.817699 -2.106228
  C 4.616495 -1.372445 -3.396315
  C 3.129607 -1.520519 -3.688868
  C 2.935155 -2.127145 -5.076379
  O 6.425205 -0.797240 -2.090898
  H 0.541015 0.738168 1.241921
  H 0.582460 -0.813797 0.410378
  H 0.567219 0.647566 -0.530503
  H 3.878273 1.450373 1.233683
  H 3.894496 -0.193559 1.830855
  H 1.819043 0.261856 3.146048
  H 1.837386 1.935707 2.567443
  H 4.060731 0.600752 4.178537
  H 2.891540 1.762145 4.791149
  H 4.079347 2.266490 3.596691
  H 2.378510 -0.586930 -1.577887
  H 5.045268 -0.006702 -0.180063
  H 5.096101 -2.352003 -3.502313
  H 5.072624 -0.758317 -4.181371
  H 2.640940 -0.546457 -3.669974
  H 2.663656 -2.180712 -2.957528
  H 3.374705 -1.493976 -5.843448
  H 1.876432 -2.236803 -5.296146
  H 3.396114 -3.110088 -5.139870
  H 6.821584 -0.446247 -1.271240
 32
 -0.719529
  C 0.962850 0.189967 0.407383
  C 2.435674 0.194614 0.369199
  C 3.230464 0.629315 1.541910
  C 2.461484 1.051480 2.791673
  C 3.426907 1.411678 3.916738
  C 3.046022 -0.257579 -0.796097
  C 4.423479 -0.330390 -1.002935
  C 5.112105 -0.778823 -2.126013
  C 4.619797 -1.334824 -3.416665
  C 3.132304 -1.518344 -3.694899
  C 2.939209 -2.138762 -5.076315
  O 6.430535 -0.741621 -2.119437
  H 0.556227 0.860045 1.157221
  H 0.622440 -0.819490 0.659564
  H 0.541437 0.421617 -0.568804
  H 3.873565 1.461712 1.234576
  H 3.910068 -0.183836 1.820409
  H 1.814559 0.239042 3.128170
  H 1.836746 1.922693 2.578372
  H 4.049356 0.561020 4.183647
  H 2.878018 1.715815 4.803558
  H 4.075120 2.234891 3.625114
  H 2.386428 -0.568625 -1.588129
  H 5.057363 0.011645 -0.193789
  H 5.122618 -2.302449 -3.535772
  H 5.052364 -0.703274 -4.202551
  H 2.622012 -0.555414 -3.679001
  H 2.687585 -2.183120 -2.954630
  H 3.359754 -1.502487 -5.851077
  H 1.881388 -2.271421 -5.286802
  H 3.419221 -3.112012 -5.136503
  H 6.828096 -0.387945 -1.301626
 32
 -1.127166
  C 0.971663 0.242021 0.402618
  C 2.444037 0.237652 0.347729
  C 3.236709 0.630828 1.534983
  C 2.461978 0.978377 2.798752
  C 3.419402 1.289275 3.947287
  C 3.052109 -0.193526 -0.827123
  C 4.427655 -0.234515 -1.046406
  C 5.116831 -0.684009 -2.169953
  C 4.625962 -1.291151 -3.436079
  C 3.142432 -1.541469 -3.681256
  C 2.951380 -2.222175 -5.035798
  O 6.433319 -0.601271 -2.184364
  H 0.586174 1.034312 1.037212
  H 0.633295 -0.697798 0.848831
  H 0.529708 0.307678 -0.589357
  H 3.861328 1.491493 1.265716
  H 3.934840 -0.180428 1.774333
  H 1.821647 0.144587 3.087231
  H 1.829358 1.849409 2.629797
  H 4.051442 0.430284 4.173166
  H 2.862796 1.541177 4.846822
  H 4.059887 2.132989 3.702855
  H 2.392753 -0.510147 -1.616675
  H 5.060518 0.143738 -0.249727
  H 5.165553 -2.241468 -3.538903
  H 5.018673 -0.665169 -4.244890
  H 2.595122 -0.597638 -3.693716
  H 2.734887 -2.193082 -2.907434
  H 3.336080 -1.601532 -5.840762
  H 1.894401 -2.401571 -5.223868
  H 3.467599 -3.181212 -5.066917
  H 6.829779 -0.211900 -1.382153
 32
 -1.456045
  C 0.979725 0.195294 0.434900
  C 2.449126 0.205575 0.353034
  C 3.244217 0.613337 1.535577
  C 2.467522 0.928512 2.810760
  C 3.421068 1.258997 3.953917
  C 3.052024 -0.198077 -0.832275
  C 4.428171 -0.216786 -1.059346
  C 5.117550 -0.626430 -2.196632
  C 4.629291 -1.223117 -3.468902
  C 3.154839 -1.539060 -3.689053
  C 2.971335 -2.228512 -5.039496
  O 6.431535 -0.510864 -2.221313
  H 0.605686 1.095647 0.918563
  H 0.660700 -0.633557 1.071021
  H 0.515083 0.076535 -0.536804
  H 3.837016 1.495956 1.266034
  H 3.970813 -0.175311 1.762372
  H 1.853588 0.073318 3.098212
  H 1.804476 1.781410 2.652919
  H 4.079115 0.420726 4.167580
  H 2.863356 1.485408 4.858470
  H 4.034438 2.125559 3.712422
  H 2.392340 -0.504393 -1.624295
  H 5.056614 0.147919 -0.255552
  H 5.211320 -2.143874 -3.607135
  H 4.974106 -0.559068 -4.269018
  H 2.565866 -0.620747 -3.693210
  H 2.789544 -2.206754 -2.907031
  H 3.317412 -1.591873 -5.852073
  H 1.922276 -2.452241 -5.210167
  H 3.525282 -3.162548 -5.078382
  H 6.824952 -0.120543 -1.419506
 32
 -1.563178
  C 0.982166 0.232409 0.431313
  C 2.450197 0.208261 0.345851
  C 3.253501 0.553586 1.543527
  C 2.483479 0.824432 2.831807
  C 3.441026 1.137593 3.977911
  C 3.045935 -0.139358 -0.859253
  C 4.419758 -0.115038 -1.101870
  C 5.106928 -0.487858 -2.252690
  C 4.627066 -1.140440 -3.501525
  C 3.171424 -1.553751 -3.674334
  C 3.004930 -2.321126 -4.983367
  O 6.410354 -0.293415 -2.308159
  H 0.644791 1.208483 0.782767
  H 0.637720 -0.480547 1.182575
  H 0.507914 0.004937 -0.518326
  H 3.854002 1.440551 1.311920
  H 3.972025 -0.250419 1.732529
  H 1.884366 -0.046845 3.102278
  H 1.806422 1.669235 2.699927
  H 4.115167 0.303705 4.162142
  H 2.886692 1.327792 4.893389
  H 4.037207 2.019946 3.758094
  H 2.383178 -0.423322 -1.657882
  H 5.043563 0.272155 -0.304240
  H 5.260202 -2.026407 -3.631820
  H 4.911897 -0.476511 -4.326539
  H 2.528901 -0.674281 -3.712744
  H 2.861127 -2.198415 -2.851774
  H 3.298802 -1.709481 -5.832887
  H 1.967061 -2.613095 -5.121103
  H 3.611605 -3.223366 -4.985975
  H 6.795798 0.128669 -1.517617
 32
 -1.176744
  C 0.982136 0.368599 0.399373
  C 2.446235 0.258303 0.316590
  C 3.263667 0.484983 1.532658
  C 2.505947 0.726404 2.835144
  C 3.476847 0.955406 3.989405
  C 3.030942 -0.034088 -0.908403
  C 4.397764 0.051599 -1.173989
  C 5.085238 -0.305632 -2.328750
  C 4.629672 -1.063310 -3.526372
  C 3.198066 -1.570956 -3.642600
  C 3.060099 -2.450468 -4.882946
  O 6.365836 -0.008163 -2.429445
  H 0.724475 1.394864 0.669103
  H 0.585068 -0.252587 1.199680
  H 0.494475 0.113792 -0.536076
  H 3.918453 1.347682 1.354978
  H 3.934418 -0.369085 1.671275
  H 1.877828 -0.136798 3.071585
  H 1.856020 1.600948 2.741660
  H 4.126754 0.093773 4.129661
  H 2.933390 1.117796 4.913748
  H 4.097769 1.828309 3.809101
  H 2.363679 -0.304148 -1.707944
  H 5.004702 0.506516 -0.400483
  H 5.311361 -1.918806 -3.607429
  H 4.865262 -0.440440 -4.400128
  H 2.504959 -0.733646 -3.741217
  H 2.933670 -2.161904 -2.765173
  H 3.309044 -1.894597 -5.783704
  H 2.041442 -2.808742 -4.979832
  H 3.716973 -3.315342 -4.822715
  H 6.734189 0.481212 -1.669854
 32
 -0.153894
  C 0.973883 0.511923 0.384060
  C 2.423255 0.268632 0.309449
  C 3.252528 0.381543 1.532330
  C 2.512839 0.625510 2.844718
  C 3.496803 0.742927 4.005037
  C 2.997706 0.012488 -0.927804
  C 4.350601 0.180689 -1.226512
  C 5.038449 -0.169517 -2.381437
  C 4.617235 -1.026632 -3.523703
  C 3.221192 -1.635874 -3.575406
  C 3.117441 -2.595774 -4.757964
  O 6.287308 0.227396 -2.532783
  H 0.825955 1.561807 0.646491
  H 0.501571 -0.064340 1.177721
  H 0.476305 0.310969 -0.558232
  H 3.974892 1.193358 1.390387
  H 3.856516 -0.527920 1.630810
  H 1.827339 -0.199073 3.049009
  H 1.926935 1.542864 2.785255
  H 4.086501 -0.163941 4.108947
  H 2.964546 0.904960 4.938165
  H 4.175815 1.579118 3.857618
  H 2.324997 -0.261482 -1.721707
  H 4.929612 0.727150 -0.491348
  H 5.355941 -1.836351 -3.571840
  H 4.789738 -0.442778 -4.433678
  H 2.471625 -0.855261 -3.706110
  H 3.014480 -2.187708 -2.657538
  H 3.308829 -2.079591 -5.695634
  H 2.121348 -3.028191 -4.808235
  H 3.832920 -3.408305 -4.663727
  H 6.633851 0.779081 -1.806429
 32
 1.329923
  C 0.976851 0.627199 0.394600
  C 2.403287 0.288387 0.295994
  C 3.251687 0.301514 1.510383
  C 2.543784 0.536036 2.840464
  C 3.545286 0.541031 3.991314
  C 2.957981 0.057256 -0.956013
  C 4.290783 0.306146 -1.283283
  C 4.988686 -0.032076 -2.435472
  C 4.621205 -0.980220 -3.522508
  C 3.261438 -1.666912 -3.527597
  C 3.202580 -2.696802 -4.652823
  O 6.196701 0.461976 -2.631629
  H 0.944015 1.670090 0.719107
  H 0.454158 0.051133 1.155624
  H 0.465804 0.536040 -0.558356
  H 4.027391 1.067146 1.389744
  H 3.798367 -0.646225 1.561622
  H 1.809367 -0.251185 3.018599
  H 2.016983 1.491048 2.827020
  H 4.079226 -0.404977 4.047433
  H 3.033595 0.693959 4.938211
  H 4.273686 1.339864 3.871343
  H 2.277724 -0.239987 -1.738097
  H 4.821836 0.935918 -0.578375
  H 5.402275 -1.750300 -3.516665
  H 4.764357 -0.448404 -4.469414
  H 2.469569 -0.936351 -3.694657
  H 3.090764 -2.174865 -2.578153
  H 3.353106 -2.224150 -5.620570
  H 2.233688 -3.189064 -4.665031
  H 3.966690 -3.459594 -4.523180
  H 6.506678 1.072926 -1.937530
 32
 3.274502
  C 0.998350 0.773396 0.398745
  C 2.387169 0.308027 0.283474
  C 3.245327 0.236287 1.487808
  C 2.568815 0.499261 2.830818
  C 3.579206 0.405118 3.970689
  C 2.922821 0.057382 -0.973707
  C 4.246795 0.343164 -1.311788
  C 4.967891 -0.006378 -2.443042
  C 4.645581 -1.016504 -3.488929
  C 3.295176 -1.722771 -3.488037
  C 3.268044 -2.799161 -4.569710
  O 6.154586 0.532538 -2.653970
  H 1.098976 1.798456 0.766851
  H 0.411071 0.231518 1.134216
  H 0.489061 0.785940 -0.560153
  H 4.080424 0.938668 1.372168
  H 3.718918 -0.752687 1.514477
  H 1.777401 -0.233819 3.000880
  H 2.116971 1.492490 2.842945
  H 4.042631 -0.576094 3.999121
  H 3.089335 0.573232 4.926047
  H 4.362161 1.151227 3.861245
  H 2.235849 -0.257351 -1.743687
  H 4.722013 1.038337 -0.627320
  H 5.435123 -1.775294 -3.417988
  H 4.807348 -0.535099 -4.459288
  H 2.496613 -1.008977 -3.697499
  H 3.115185 -2.193379 -2.521387
  H 3.420170 -2.364857 -5.554562
  H 2.308646 -3.309509 -4.571999
  H 4.044276 -3.539868 -4.400324
  H 6.434631 1.178614 -1.976614
 32
 2.233197
  C 1.016102 0.696804 0.402072
  C 2.422850 0.287200 0.295276
  C 3.275033 0.249610 1.506376
  C 2.583441 0.500231 2.841978
  C 3.588240 0.443488 3.988629
  C 2.967857 0.043836 -0.958978
  C 4.298049 0.302347 -1.288555
  C 5.009273 -0.046984 -2.427591
  C 4.662581 -1.027906 -3.491939
  C 3.304896 -1.718427 -3.491979
  C 3.258237 -2.777494 -4.590176
  O 6.209438 0.464641 -2.629174
  H 1.055916 1.729345 0.758305
  H 0.456940 0.130908 1.143971
  H 0.506950 0.670258 -0.555602
  H 4.086459 0.978329 1.391308
  H 3.778487 -0.722416 1.544273
  H 1.813329 -0.253738 3.012553
  H 2.101793 1.478906 2.843606
  H 4.077538 -0.527186 4.030874
  H 3.087572 0.608368 4.939481
  H 4.352994 1.208736 3.875526
  H 2.282224 -0.255817 -1.735864
  H 4.803207 0.961131 -0.591399
  H 5.445051 -1.795544 -3.449580
  H 4.818308 -0.525514 -4.452459
  H 2.512984 -0.994200 -3.684124
  H 3.127196 -2.201453 -2.530921
  H 3.413876 -2.329595 -5.568927
  H 2.291419 -3.274089 -4.596456
  H 4.024728 -3.533304 -4.435163
  H 6.506190 1.092748 -1.944939
 32
 2.250115
  C 1.016563 0.704056 0.401074
  C 2.421611 0.287932 0.294645
  C 3.273519 0.246274 1.505522
  C 2.582960 0.499505 2.841629
  C 3.587630 0.437941 3.988306
  C 2.966288 0.044707 -0.959844
  C 4.296610 0.303603 -1.289488
  C 5.008026 -0.045542 -2.428360
  C 4.661880 -1.026777 -3.492750
  C 3.306677 -1.722386 -3.489464
  C 3.261619 -2.782664 -4.586500
  O 6.207462 0.467137 -2.630175
  H 1.061434 1.735826 0.758959
  H 0.454067 0.139649 1.141179
  H 0.508187 0.682021 -0.557425
  H 4.088424 0.971377 1.390547
  H 3.772816 -0.728306 1.543034
  H 1.809290 -0.251134 3.012019
  H 2.105474 1.480308 2.843666
  H 4.071226 -0.535041 4.031328
  H 3.088060 0.606375 4.938975
  H 4.356639 1.198581 3.874497
  H 2.279953 -0.252415 -1.737190
  H 4.801856 0.961255 -0.591466
  H 5.447428 -1.791505 -3.453397
  H 4.812842 -0.522797 -4.453252
  H 2.511497 -1.001237 -3.680583
  H 3.132758 -2.205009 -2.527501
  H 3.414891 -2.335377 -5.565823
  H 2.296266 -3.282000 -4.591118
  H 4.030245 -3.535990 -4.431628
  H 6.503871 1.095508 -1.945636
 32
 0.841597
  C 0.990532 0.597307 0.399127
  C 2.423371 0.279255 0.299817
  C 3.267431 0.301577 1.517009
  C 2.555446 0.543626 2.844979
  C 3.554082 0.551625 3.999312
  C 2.980474 0.040914 -0.949338
  C 4.322190 0.255814 -1.264213
  C 5.020538 -0.089202 -2.414030
  C 4.638981 -1.019882 -3.511274
  C 3.265615 -1.677993 -3.529082
  C 3.193875 -2.702966 -4.657757
  O 6.241514 0.376322 -2.595933
  H 0.940638 1.643974 0.713370
  H 0.484360 0.018656 1.168108
  H 0.476744 0.491960 -0.551190
  H 4.042439 1.068478 1.395121
  H 3.815737 -0.645685 1.576185
  H 1.818700 -0.241238 3.025187
  H 2.030747 1.499704 2.825840
  H 4.083316 -0.395822 4.063107
  H 3.040404 0.712756 4.943522
  H 4.286231 1.346202 3.876582
  H 2.298414 -0.241546 -1.735631
  H 4.865655 0.857775 -0.545166
  H 5.403151 -1.806870 -3.506446
  H 4.799872 -0.484575 -4.453091
  H 2.490683 -0.930677 -3.699463
  H 3.077576 -2.185320 -2.582770
  H 3.364770 -2.231282 -5.622860
  H 2.214065 -3.172567 -4.680676
  H 3.938658 -3.483494 -4.522954
  H 6.560355 0.975082 -1.895910
