 25
 0.000000
  C 0.904470 0.048970 0.271605
  C 2.395638 0.061355 0.085430
  C 3.242349 -0.010789 1.349160
  C 2.522730 -0.088812 2.692698
  H 3.254421 -0.134598 3.493860
  C 2.990995 0.128447 -1.122684
  C 2.350938 0.205263 -2.496243
  C 0.840413 0.217963 -2.709913
  H 0.636203 0.277088 -3.776026
  C 4.453122 0.133190 -1.213343
  C 5.193959 0.194394 -2.317261
  H 6.271277 0.192384 -2.286964
  H 0.620849 -0.003364 1.316344
  H 0.458636 -0.815861 -0.213085
  H 0.455902 0.955879 -0.125317
  H 3.888573 0.871875 1.379955
  H 3.889824 -0.890182 1.278414
  H 1.898660 -0.978895 2.752676
  H 1.897547 0.787639 2.854812
  H 2.744730 -0.643520 -3.065923
  H 2.745654 1.111473 -2.968469
  H 0.377622 1.077922 -2.235192
  H 0.376617 -0.688537 -2.332794
  H 4.994186 0.081284 -0.281331
  H 4.808216 0.250329 -3.321401
 25
 5.475496
  C 0.920927 0.077277 0.281708
  C 2.377098 0.070075 0.089987
  C 3.245625 0.012270 1.364538
  C 2.499399 -0.095987 2.695459
  H 3.230704 -0.128858 3.503017
  C 2.985173 0.131392 -1.122900
  C 2.334894 0.206073 -2.488685
  C 0.824316 0.240570 -2.691631
  H 0.632866 0.294072 -3.762741
  C 4.449789 0.115536 -1.226480
  C 5.190356 0.166346 -2.335810
  H 6.265853 0.155815 -2.270856
  H 0.605775 -0.021264 1.298174
  H 0.753013 -0.826354 -0.266823
  H 0.416649 0.919922 -0.160833
  H 3.863110 0.915182 1.400698
  H 3.916180 -0.848550 1.289765
  H 1.904442 -1.005385 2.749745
  H 1.855792 0.763857 2.867562
  H 2.716030 -0.653383 -3.051935
  H 2.740771 1.103706 -2.967713
  H 0.370730 1.116346 -2.235088
  H 0.334212 -0.653956 -2.317741
  H 4.993124 0.064064 -0.297802
  H 4.792035 0.221946 -3.333437
 25
 17.459340
  C 0.909015 0.071421 0.283439
  C 2.347998 0.075283 0.077144
  C 3.257038 0.032723 1.359782
  C 2.538996 -0.099861 2.705677
  H 3.284214 -0.115946 3.499209
  C 2.957191 0.132727 -1.124034
  C 2.321276 0.201939 -2.498991
  C 0.813486 0.277736 -2.723323
  H 0.638548 0.315189 -3.797939
  C 4.410442 0.105179 -1.202656
  C 5.158823 0.139498 -2.282108
  H 6.230754 0.124107 -2.199047
  H 0.572377 -0.080028 1.295380
  H 0.975913 -0.829343 -0.290871
  H 0.351037 0.874886 -0.192306
  H 3.843624 0.956360 1.379136
  H 3.949444 -0.808436 1.265278
  H 1.970829 -1.025192 2.767715
  H 1.877022 0.742056 2.892050
  H 2.686367 -0.674456 -3.045027
  H 2.755017 1.081040 -2.985628
  H 0.383899 1.179500 -2.294003
  H 0.286759 -0.590680 -2.337669
  H 4.935945 0.061436 -0.261294
  H 4.778706 0.188077 -3.282812
 25
 31.310769
  C 0.892477 0.100306 0.277908
  C 2.349306 0.079628 0.077655
  C 3.245576 0.032935 1.366017
  C 2.506621 -0.112856 2.705393
  H 3.238339 -0.129120 3.509563
  C 2.976343 0.135782 -1.130567
  C 2.326994 0.198627 -2.498441
  C 0.818882 0.280320 -2.681517
  H 0.612291 0.308763 -3.747116
  C 4.421158 0.106282 -1.215039
  C 5.175415 0.131909 -2.319868
  H 6.244652 0.116917 -2.251385
  H 0.523159 -0.061270 1.285105
  H 1.166150 -0.789103 -0.277398
  H 0.330560 0.845369 -0.232141
  H 3.829969 0.968578 1.388722
  H 3.953220 -0.806085 1.273050
  H 1.944413 -1.046844 2.750715
  H 1.836668 0.728244 2.884856
  H 2.675120 -0.684278 -3.044488
  H 2.751413 1.071501 -3.000220
  H 0.410311 1.191146 -2.247276
  H 0.297686 -0.581212 -2.270179
  H 4.953054 0.069775 -0.282879
  H 4.791075 0.171841 -3.321529
 25
 43.598895
  C 0.894174 0.129408 0.308589
  C 2.344934 0.080278 0.074464
  C 3.230622 0.024010 1.349267
  C 2.500263 -0.124185 2.676162
  H 3.231101 -0.144124 3.476669
  C 2.980580 0.138864 -1.131242
  C 2.325916 0.198974 -2.509719
  C 0.813416 0.275856 -2.681262
  H 0.595831 0.297260 -3.744436
  C 4.420507 0.110429 -1.206261
  C 5.180119 0.129087 -2.307064
  H 6.250052 0.112779 -2.231186
  H 0.546175 -0.033761 1.326039
  H 1.297735 -0.753382 -0.214531
  H 0.301302 0.841594 -0.234174
  H 3.807860 0.955418 1.372927
  H 3.932824 -0.811853 1.255308
  H 1.937607 -1.053023 2.721208
  H 1.834101 0.712966 2.860579
  H 2.671092 -0.681985 -3.052634
  H 2.745922 1.068788 -3.017720
  H 0.407739 1.188091 -2.249701
  H 0.302053 -0.585415 -2.259012
  H 4.952858 0.079665 -0.276192
  H 4.804873 0.159815 -3.313367
 25
 52.042528
  C 0.880246 0.159054 0.316069
  C 2.334568 0.079242 0.070508
  C 3.224369 0.012234 1.360125
  C 2.498800 -0.136953 2.692463
  H 3.248767 -0.165004 3.496576
  C 2.980614 0.142679 -1.138165
  C 2.334523 0.200673 -2.510521
  C 0.823774 0.275536 -2.688513
  H 0.609476 0.286696 -3.758931
  C 4.422402 0.115802 -1.219360
  C 5.169081 0.128696 -2.327036
  H 6.245935 0.122498 -2.258642
  H 0.534058 0.016879 1.319806
  H 1.387633 -0.737861 -0.159362
  H 0.274429 0.808770 -0.268220
  H 3.799638 0.936665 1.385501
  H 3.920871 -0.821300 1.263784
  H 1.924648 -1.071211 2.738922
  H 1.832452 0.711918 2.888949
  H 2.684230 -0.685368 -3.052000
  H 2.760318 1.067716 -3.022408
  H 0.416288 1.190269 -2.269647
  H 0.310378 -0.582734 -2.259760
  H 4.964692 0.096054 -0.283557
  H 4.773566 0.150189 -3.328822
 25
 58.310588
  C 0.880237 0.194570 0.335727
  C 2.332508 0.082022 0.070019
  C 3.219946 0.001942 1.356199
  C 2.493981 -0.152503 2.689651
  H 3.235306 -0.194399 3.483168
  C 2.980566 0.148925 -1.143418
  C 2.327163 0.200703 -2.520735
  C 0.814511 0.267944 -2.695002
  H 0.595905 0.265468 -3.760026
  C 4.433448 0.123733 -1.219320
  C 5.190658 0.129349 -2.323644
  H 6.259250 0.128027 -2.246335
  H 0.538374 0.069626 1.347740
  H 1.468797 -0.724642 -0.101448
  H 0.247103 0.798307 -0.291450
  H 3.803269 0.927969 1.387411
  H 3.914998 -0.838767 1.252552
  H 1.918031 -1.068566 2.729025
  H 1.845640 0.687830 2.892890
  H 2.677102 -0.688173 -3.060133
  H 2.749296 1.067769 -3.040967
  H 0.405600 1.183149 -2.287516
  H 0.310137 -0.582944 -2.256647
  H 4.965818 0.115000 -0.290268
  H 4.802785 0.140086 -3.321213
 25
 62.798380
  C 0.876634 0.241085 0.344254
  C 2.327437 0.086934 0.073822
  C 3.219107 -0.009555 1.357310
  C 2.502350 -0.170180 2.688544
  H 3.255699 -0.231770 3.483193
  C 2.980274 0.158047 -1.145765
  C 2.334885 0.201675 -2.520841
  C 0.824116 0.255323 -2.704533
  H 0.612285 0.240182 -3.770200
  C 4.419511 0.137583 -1.217859
  C 5.176327 0.135090 -2.322242
  H 6.255537 0.129865 -2.244968
  H 0.531029 0.138594 1.351459
  H 1.528338 -0.713616 -0.047973
  H 0.238151 0.780347 -0.320144
  H 3.807391 0.904293 1.395679
  H 3.902586 -0.850293 1.242893
  H 1.908680 -1.088862 2.719933
  H 1.859604 0.686275 2.908548
  H 2.693438 -0.685346 -3.054759
  H 2.753476 1.067750 -3.041707
  H 0.404215 1.174378 -2.308554
  H 0.323514 -0.599056 -2.259121
  H 4.953097 0.136374 -0.287688
  H 4.781124 0.132077 -3.333155
 25
 66.239772
  C 0.881363 0.292923 0.349378
  C 2.327895 0.090557 0.074610
  C 3.223760 -0.022164 1.355226
  C 2.494895 -0.188908 2.687137
  H 3.236000 -0.271644 3.476740
  C 2.982096 0.164311 -1.154414
  C 2.328566 0.199126 -2.524465
  C 0.813974 0.239874 -2.696754
  H 0.593795 0.211255 -3.756762
  C 4.433343 0.145830 -1.224390
  C 5.197815 0.139731 -2.326684
  H 6.273119 0.145578 -2.243713
  H 0.528816 0.208212 1.360210
  H 1.580217 -0.707947 -0.007083
  H 0.231336 0.773717 -0.354408
  H 3.828374 0.893445 1.403214
  H 3.902263 -0.875726 1.228597
  H 1.884928 -1.099963 2.705120
  H 1.863396 0.676954 2.916323
  H 2.692498 -0.696205 -3.062555
  H 2.739539 1.069369 -3.054878
  H 0.391218 1.155338 -2.310315
  H 0.325449 -0.610616 -2.239627
  H 4.967695 0.154690 -0.287375
  H 4.814072 0.130831 -3.328041
 25
 68.966040
  C 0.881819 0.347899 0.352159
  C 2.325800 0.091908 0.079182
  C 3.227064 -0.035735 1.364749
  C 2.501977 -0.205845 2.693325
  H 3.243156 -0.309690 3.481499
  C 2.987322 0.168901 -1.155290
  C 2.341345 0.195191 -2.525299
  C 0.834027 0.222247 -2.703971
  H 0.617613 0.179588 -3.772498
  C 4.412168 0.152261 -1.221377
  C 5.176322 0.144702 -2.326843
  H 6.246635 0.160675 -2.246220
  H 0.517630 0.268018 1.350342
  H 1.615067 -0.704966 0.021502
  H 0.234613 0.773474 -0.373208
  H 3.835344 0.862776 1.418490
  H 3.888919 -0.888869 1.228239
  H 1.885978 -1.092705 2.702446
  H 1.894804 0.652378 2.930035
  H 2.712667 -0.696104 -3.057481
  H 2.747348 1.063429 -3.055840
  H 0.399868 1.146192 -2.326212
  H 0.350009 -0.631611 -2.236916
  H 4.940761 0.170186 -0.292425
  H 4.786190 0.133253 -3.340326
 25
 71.199840
  C 0.897928 0.400136 0.351596
  C 2.333975 0.086896 0.078556
  C 3.234734 -0.051541 1.372272
  C 2.493472 -0.220579 2.693147
  H 3.223446 -0.342027 3.488232
  C 2.995805 0.165382 -1.158140
  C 2.334509 0.186484 -2.534045
  C 0.820312 0.202827 -2.701002
  H 0.595312 0.148730 -3.761882
  C 4.431661 0.150899 -1.226069
  C 5.196112 0.149907 -2.332290
  H 6.276729 0.183868 -2.251754
  H 0.519756 0.314509 1.353612
  H 1.653266 -0.710412 0.033845
  H 0.244268 0.793355 -0.397539
  H 3.854239 0.842138 1.434840
  H 3.888318 -0.912584 1.233439
  H 1.857881 -1.104439 2.688115
  H 1.890760 0.654087 2.931075
  H 2.702739 -0.695350 -3.062848
  H 2.730970 1.052422 -3.070068
  H 0.382559 1.129881 -2.327552
  H 0.344904 -0.652490 -2.220169
  H 4.968640 0.182434 -0.289049
  H 4.807684 0.147754 -3.341164
 25
 71.864701
  C 0.911259 0.499637 0.361125
  C 2.325354 0.095651 0.081292
  C 3.236200 -0.067098 1.370159
  C 2.499367 -0.250901 2.690270
  H 3.231456 -0.404769 3.479657
  C 2.995185 0.188384 -1.162586
  C 2.338119 0.189098 -2.533852
  C 0.824785 0.163361 -2.701020
  H 0.600933 0.078935 -3.763287
  C 4.425634 0.176859 -1.223034
  C 5.198060 0.164699 -2.326273
  H 6.269149 0.175731 -2.240251
  H 0.512835 0.379301 1.345917
  H 1.665351 -0.703735 0.042114
  H 0.251719 0.849591 -0.400185
  H 3.865458 0.818447 1.443558
  H 3.877938 -0.934330 1.210056
  H 1.846853 -1.120271 2.668900
  H 1.916984 0.627370 2.949787
  H 2.731593 -0.692142 -3.060997
  H 2.714147 1.062663 -3.074905
  H 0.362020 1.088582 -2.348375
  H 0.371921 -0.693527 -2.199716
  H 4.955195 0.203816 -0.287129
  H 4.817603 0.136186 -3.333846
 25
 72.176242
  C 0.945796 0.611190 0.365954
  C 2.326942 0.097893 0.082840
  C 3.235720 -0.097222 1.370717
  C 2.491994 -0.284120 2.683338
  H 3.215584 -0.472954 3.471114
  C 3.003470 0.190286 -1.165778
  C 2.339973 0.172844 -2.534330
  C 0.823740 0.109924 -2.689564
  H 0.593463 -0.004798 -3.744563
  C 4.429138 0.176563 -1.223254
  C 5.203676 0.174432 -2.328561
  H 6.274257 0.227799 -2.243973
  H 0.518625 0.452152 1.335674
  H 1.677052 -0.695605 0.034955
  H 0.292997 0.952280 -0.408568
  H 3.882171 0.770941 1.458129
  H 3.856004 -0.973072 1.197510
  H 1.813229 -1.136120 2.643087
  H 1.930728 0.609043 2.957023
  H 2.746063 -0.700956 -3.055090
  H 2.696122 1.049699 -3.085882
  H 0.341785 1.031125 -2.355733
  H 0.394586 -0.744782 -2.162996
  H 4.958358 0.218035 -0.285489
  H 4.823207 0.162685 -3.333195
 25
 70.532450
  C 1.003170 0.771231 0.371390
  C 2.322830 0.111119 0.083304
  C 3.228498 -0.131785 1.366063
  C 2.471706 -0.336846 2.670543
  H 3.184403 -0.573235 3.457502
  C 3.011668 0.211811 -1.173055
  C 2.341050 0.168222 -2.527148
  C 0.823871 0.023193 -2.658021
  H 0.581370 -0.131021 -3.711415
  C 4.433790 0.208281 -1.228291
  C 5.209839 0.198536 -2.335867
  H 6.281860 0.248971 -2.252480
  H 0.515033 0.553656 1.307383
  H 1.674278 -0.679881 0.013217
  H 0.377799 1.130016 -0.415763
  H 3.896644 0.723183 1.479302
  H 3.831471 -1.020020 1.168803
  H 1.767336 -1.163810 2.599030
  H 1.937710 0.561136 2.966977
  H 2.783394 -0.686699 -3.052559
  H 2.649075 1.063332 -3.085995
  H 0.300165 0.914851 -2.340447
  H 0.450074 -0.834599 -2.104329
  H 4.963964 0.247100 -0.284181
  H 4.827420 0.156399 -3.339573
