 26
 0.000000
  H 1.452069 0.167027 0.467830
  C 2.530175 0.148245 0.420852
  C 3.297294 0.615391 1.582952
  C 2.458589 1.090588 2.765267
  C 3.348776 1.552538 3.914849
  C 3.087630 -0.322948 -0.752190
  C 4.460783 -0.418695 -0.991758
  C 5.121301 -0.876249 -2.133182
  C 4.591325 -1.392930 -3.421703
  C 3.096146 -1.495866 -3.678873
  H 2.938758 -1.895127 -4.674472
  O 6.435759 -0.879124 -2.140966
  H 3.959098 1.432168 1.270129
  H 3.959184 -0.190605 1.922375
  H 1.816921 0.281127 3.117357
  H 1.817015 1.918677 2.459271
  H 3.983661 0.742192 4.265779
  H 2.742398 1.888953 4.751914
  H 3.983780 2.380278 3.607412
  H 2.400144 -0.631466 -1.520053
  H 5.109901 -0.095208 -0.186274
  H 5.045563 -2.381626 -3.556963
  H 5.045934 -0.771961 -4.202661
  H 2.621644 -0.519144 -3.630485
  H 2.621439 -2.168441 -2.969085
  H 6.846078 -0.549762 -1.318265
 26
 -0.072539
  H 1.549316 0.659060 0.314234
  C 2.609467 0.446380 0.298781
  C 3.341987 0.680565 1.548901
  C 2.466958 1.176653 2.696428
  C 3.286595 1.401563 3.962369
  C 3.141106 -0.025196 -0.882520
  C 4.499062 -0.304738 -1.067143
  C 5.142279 -0.757837 -2.220709
  C 4.567702 -1.344294 -3.458718
  C 3.095972 -1.724455 -3.518397
  H 2.927646 -2.305595 -4.421819
  O 6.452555 -0.712432 -2.278651
  H 4.145831 1.406362 1.373087
  H 3.851858 -0.240563 1.856769
  H 1.681840 0.446993 2.902930
  H 1.982326 2.112476 2.411919
  H 3.759839 0.478035 4.288229
  H 2.649370 1.754233 4.769252
  H 4.061359 2.146834 3.797056
  H 2.461592 -0.158011 -1.706993
  H 5.152461 -0.076408 -0.232574
  H 5.177829 -2.230619 -3.666133
  H 4.800266 -0.653209 -4.277377
  H 2.451514 -0.852523 -3.576629
  H 2.808876 -2.336172 -2.667792
  H 6.896741 -0.322545 -1.495406
 26
 -0.975901
  H 1.681781 1.111368 0.156575
  C 2.687717 0.717254 0.199020
  C 3.338766 0.724767 1.513138
  C 2.460036 1.268937 2.638744
  C 3.194305 1.249972 3.976033
  C 3.232448 0.242993 -0.972370
  C 4.538384 -0.236611 -1.093928
  C 5.136289 -0.723814 -2.258224
  C 4.443361 -1.204267 -3.485712
  C 3.198706 -2.069670 -3.288775
  H 2.917891 -2.493705 -4.248002
  O 6.438580 -0.798129 -2.346361
  H 4.262050 1.317149 1.461238
  H 3.667330 -0.290518 1.768945
  H 1.552159 0.668090 2.720109
  H 2.159397 2.292517 2.409401
  H 3.483268 0.236390 4.246774
  H 2.555333 1.638453 4.765654
  H 4.089956 1.865196 3.936841
  H 2.618975 0.291531 -1.858541
  H 5.179562 -0.151459 -0.225405
  H 5.185264 -1.771805 -4.051019
  H 4.192947 -0.328906 -4.098480
  H 2.348854 -1.515568 -2.914239
  H 3.407728 -2.889014 -2.607456
  H 6.934200 -0.486133 -1.564681
 26
 2.971187
  H 1.729915 1.199679 0.116562
  C 2.708293 0.743202 0.178101
  C 3.322784 0.684338 1.511227
  C 2.457681 1.283465 2.617257
  C 3.147388 1.187516 3.973822
  C 3.257653 0.263188 -0.989351
  C 4.542991 -0.268490 -1.089493
  C 5.149942 -0.697967 -2.277563
  C 4.426519 -1.229866 -3.461538
  C 3.217081 -2.116017 -3.167488
  H 2.823317 -2.494406 -4.106403
  O 6.420581 -0.484008 -2.487327
  H 4.290659 1.199790 1.495044
  H 3.555711 -0.357990 1.761353
  H 1.502031 0.757979 2.663114
  H 2.249431 2.331621 2.394283
  H 3.343632 0.150615 4.237350
  H 2.519906 1.617818 4.750248
  H 4.091914 1.726855 3.968694
  H 2.676719 0.368881 -1.892672
  H 5.158254 -0.251273 -0.198389
  H 5.154651 -1.798477 -4.045235
  H 4.130331 -0.385432 -4.094146
  H 2.419264 -1.591927 -2.657221
  H 3.511611 -2.967831 -2.559965
  H 7.002945 -0.413502 -1.705105
 26
 12.102448
  H 1.758211 1.224367 0.124338
  C 2.726607 0.746734 0.190822
  C 3.331736 0.674604 1.526717
  C 2.445910 1.238667 2.633731
  C 3.108601 1.098336 3.996777
  C 3.275045 0.265923 -0.975806
  C 4.549363 -0.288727 -1.069742
  C 5.161358 -0.752363 -2.245339
  C 4.415099 -1.272558 -3.415499
  C 3.218104 -2.170447 -3.106136
  H 2.774094 -2.505459 -4.039257
  O 6.372620 -0.316545 -2.531287
  H 4.289871 1.208539 1.526404
  H 3.578296 -0.369065 1.761783
  H 1.491212 0.713330 2.644815
  H 2.243042 2.293890 2.440521
  H 3.288363 0.054534 4.234821
  H 2.473321 1.514079 4.771686
  H 4.057775 1.625917 4.022746
  H 2.715059 0.407115 -1.886340
  H 5.144956 -0.322176 -0.163087
  H 5.130258 -1.818305 -4.037215
  H 4.099362 -0.417562 -4.020771
  H 2.450823 -1.667351 -2.530271
  H 3.538525 -3.048977 -2.553464
  H 7.111324 -0.482405 -1.917145
 26
 25.898952
  H 1.786424 1.306204 0.145716
  C 2.737768 0.795131 0.198587
  C 3.309559 0.613243 1.541285
  C 2.452449 1.213172 2.654988
  C 3.114376 1.040095 4.018434
  C 3.279754 0.352656 -0.984423
  C 4.514456 -0.277787 -1.085993
  C 5.152189 -0.753692 -2.252900
  C 4.459695 -1.329465 -3.420066
  C 3.241511 -2.192809 -3.093314
  H 2.803251 -2.566071 -4.012886
  O 6.236294 -0.012527 -2.513119
  H 4.312729 1.050416 1.578935
  H 3.439347 -0.453776 1.738591
  H 1.474978 0.729718 2.667236
  H 2.294972 2.276311 2.465904
  H 3.267860 -0.013730 4.243520
  H 2.488047 1.461087 4.801473
  H 4.077959 1.542799 4.049710
  H 2.749803 0.572006 -1.901472
  H 5.069976 -0.407882 -0.166619
  H 5.181379 -1.906432 -4.008026
  H 4.167224 -0.487571 -4.063693
  H 2.482556 -1.638092 -2.555345
  H 3.531147 -3.047829 -2.489391
  H 7.118146 -0.229776 -2.170311
 26
 50.069003
  H 1.914891 1.442123 0.137274
  C 2.831046 0.868570 0.184975
  C 3.368697 0.629137 1.536881
  C 2.489777 1.218601 2.636796
  C 3.034280 0.880305 4.021762
  C 3.388705 0.471786 -1.010010
  C 4.624539 -0.167370 -1.107614
  C 5.131011 -0.844260 -2.252754
  C 4.408735 -1.363193 -3.414481
  C 3.240437 -2.269431 -3.035639
  H 2.749762 -2.632609 -3.932497
  O 6.044673 0.194555 -2.498858
  H 4.368404 1.068411 1.612740
  H 3.479896 -0.440641 1.711298
  H 1.476593 0.818336 2.548437
  H 2.433832 2.302272 2.524055
  H 3.048287 -0.189394 4.179013
  H 2.410471 1.321971 4.793226
  H 4.051423 1.261836 4.145546
  H 2.838773 0.635889 -1.928913
  H 5.175548 -0.318822 -0.181129
  H 5.106290 -1.910363 -4.058789
  H 4.058798 -0.505403 -4.013583
  H 2.507707 -1.735109 -2.437859
  H 3.585612 -3.124562 -2.466522
  H 6.983757 0.021303 -2.311871
 26
 55.780376
  H 2.030211 1.640175 0.172839
  C 2.913707 1.017608 0.192745
  C 3.416672 0.657130 1.550707
  C 2.551172 1.245650 2.665016
  C 3.081632 0.862830 4.042035
  C 3.428204 0.635074 -0.975497
  C 4.620191 -0.210494 -1.095351
  C 4.966554 -0.911803 -2.297324
  C 4.371020 -1.405489 -3.527876
  C 3.304035 -2.456969 -3.236872
  H 2.879507 -2.816112 -4.169061
  O 5.660121 0.330392 -2.102890
  H 4.440754 1.018815 1.677882
  H 3.437651 -0.430290 1.661376
  H 1.526382 0.882958 2.562509
  H 2.530895 2.334092 2.577943
  H 3.084864 -0.217895 4.167323
  H 2.458596 1.291100 4.823522
  H 4.096712 1.228569 4.181106
  H 2.972220 0.943937 -1.903012
  H 5.080668 -0.516756 -0.162727
  H 5.150408 -1.824112 -4.172804
  H 3.929843 -0.570903 -4.096945
  H 2.505524 -2.039337 -2.630192
  H 3.730174 -3.304390 -2.708301
  H 6.605379 0.244691 -1.828693
 26
 21.648235
  H 1.816988 1.293006 0.135668
  C 2.772892 0.790180 0.173453
  C 3.365462 0.611322 1.507692
  C 2.498952 1.166478 2.638163
  C 3.158885 0.954674 3.996491
  C 3.314138 0.376661 -1.019604
  C 4.570940 -0.213296 -1.142047
  C 5.163639 -0.675912 -2.339845
  C 4.418641 -1.183671 -3.506141
  C 3.237656 -2.093827 -3.178477
  H 2.767945 -2.422095 -4.099492
  O 6.263685 0.013136 -2.632940
  H 4.348300 1.097407 1.540012
  H 3.549090 -0.454284 1.690449
  H 1.523924 0.672753 2.632001
  H 2.331936 2.234270 2.483447
  H 3.310781 -0.104382 4.193259
  H 2.534766 1.356989 4.788940
  H 4.123079 1.454988 4.041524
  H 2.758396 0.571351 -1.924466
  H 5.142529 -0.339320 -0.226795
  H 5.126308 -1.712191 -4.152393
  H 4.083423 -0.320057 -4.089457
  H 2.488290 -1.593915 -2.574954
  H 3.575644 -2.975759 -2.640964
  H 7.087020 -0.146478 -2.139390
 26
 -0.416277
  H 1.686749 0.986997 0.213414
  C 2.707527 0.641006 0.222693
  C 3.385796 0.630145 1.525293
  C 2.511956 1.103897 2.683272
  C 3.277470 1.076195 4.003636
  C 3.255139 0.250939 -0.978954
  C 4.531842 -0.296539 -1.121467
  C 5.120436 -0.649051 -2.340026
  C 4.358085 -0.962674 -3.576081
  C 3.221665 -1.972365 -3.380155
  H 2.721126 -2.132791 -4.331238
  O 6.410947 -0.608065 -2.500992
  H 4.284434 1.255150 1.474340
  H 3.751740 -0.381329 1.742198
  H 1.629778 0.463271 2.765787
  H 2.165524 2.121804 2.490850
  H 3.609019 0.068931 4.239581
  H 2.644649 1.419044 4.816322
  H 4.148266 1.724322 3.961335
  H 2.671684 0.424524 -1.872368
  H 5.144243 -0.375957 -0.233339
  H 5.067168 -1.353466 -4.308945
  H 3.957692 -0.028922 -3.982965
  H 2.486550 -1.637049 -2.658916
  H 3.621103 -2.926823 -3.045375
  H 6.951157 -0.491967 -1.693074
 26
 12.586734
  H 2.505508 1.991497 0.133850
  C 3.048402 1.056351 0.200700
  C 3.279680 0.495229 1.532707
  C 2.633797 1.278745 2.672050
  C 2.868447 0.591783 4.012348
  C 3.425320 0.437936 -0.997687
  C 4.716770 0.156078 -1.383305
  C 5.079586 -0.353285 -2.633754
  C 4.173216 -1.124767 -3.525835
  C 3.446342 -2.278051 -2.825984
  H 2.966161 -2.898827 -3.577101
  O 6.282614 -0.175584 -3.111763
  H 4.362295 0.417051 1.717169
  H 2.936200 -0.545446 1.546290
  H 1.561001 1.368864 2.495738
  H 3.051209 2.286397 2.707902
  H 2.439136 -0.407397 4.016295
  H 2.400979 1.157617 4.813973
  H 3.930432 0.513911 4.231285
  H 2.621493 0.203338 -1.688901
  H 5.518364 0.466774 -0.725585
  H 4.785927 -1.526763 -4.335411
  H 3.446066 -0.443520 -3.976435
  H 2.678836 -1.935391 -2.141000
  H 4.152903 -2.894102 -2.277276
  H 6.888182 0.342319 -2.546225
 26
 14.874768
  H 3.735291 2.056572 0.461347
  C 3.591590 0.980247 0.415579
  C 3.125015 0.351676 1.633028
  C 2.812744 1.286096 2.817567
  C 2.302138 0.519953 4.031927
  C 3.709532 0.333512 -0.798235
  C 4.828719 0.354844 -1.605714
  C 4.863800 -0.163982 -2.920812
  C 4.012742 -1.233112 -3.440380
  C 3.851055 -2.426577 -2.533254
  H 3.389628 -3.233514 -3.098631
  O 5.750644 0.292878 -3.792775
  H 3.899013 -0.373561 1.957277
  H 2.243596 -0.272923 1.438007
  H 2.080107 2.029459 2.509673
  H 3.730613 1.814523 3.095038
  H 1.366984 0.008405 3.793788
  H 2.091103 1.214955 4.851850
  H 3.020501 -0.197473 4.388532
  H 2.857872 -0.243485 -1.165782
  H 5.715143 0.892790 -1.289188
  H 4.471632 -1.570937 -4.347940
  H 3.009833 -0.810696 -3.714872
  H 3.193613 -2.260685 -1.686981
  H 4.829473 -2.750174 -2.170354
  H 6.321372 1.008258 -3.487405
 26
 -0.420456
  H 4.732768 1.222215 0.854493
  C 3.886724 0.597778 0.600088
  C 2.878879 0.361878 1.639339
  C 3.084961 1.169768 2.915596
  C 2.056023 0.803738 3.977936
  C 3.815706 0.047875 -0.654927
  C 4.698390 0.407930 -1.675369
  C 4.632070 -0.038377 -2.997820
  C 3.955674 -1.292700 -3.420947
  C 4.371683 -2.528429 -2.619627
  H 3.835701 -3.391885 -2.993665
  O 4.985646 0.737581 -3.980147
  H 2.871226 -0.708088 1.885383
  H 1.876413 0.551075 1.230698
  H 3.001811 2.232981 2.690089
  H 4.086313 0.990475 3.309866
  H 1.045938 1.002196 3.624641
  H 2.217314 1.387865 4.880018
  H 2.126492 -0.248855 4.241547
  H 3.012336 -0.637424 -0.874230
  H 5.442712 1.161836 -1.437808
  H 4.179832 -1.448665 -4.477723
  H 2.875376 -1.148851 -3.342105
  H 4.161273 -2.425428 -1.557662
  H 5.436948 -2.711749 -2.744293
  H 5.583512 1.483334 -3.765538
 26
 24.106002
  H 4.822523 1.078355 0.896327
  C 3.915256 0.553311 0.628686
  C 2.896011 0.378688 1.667762
  C 3.203838 1.098866 2.977835
  C 2.130852 0.824373 4.025255
  C 3.767143 0.090027 -0.656696
  C 4.713848 0.331073 -1.640120
  C 4.681871 -0.053647 -3.003047
  C 3.996043 -1.275740 -3.475586
  C 4.322943 -2.537419 -2.679175
  H 3.791992 -3.384115 -3.103604
  O 4.565632 1.008524 -3.804814
  H 2.774154 -0.694077 1.866972
  H 1.921827 0.698431 1.280209
  H 3.265381 2.173927 2.799883
  H 4.170328 0.767876 3.361673
  H 1.160230 1.182252 3.688918
  H 2.370466 1.330186 4.957022
  H 2.051694 -0.240763 4.229937
  H 2.868055 -0.446658 -0.925922
  H 5.603045 0.870361 -1.328303
  H 4.230888 -1.419283 -4.533097
  H 2.916273 -1.081953 -3.433603
  H 4.037861 -2.444207 -1.636528
  H 5.387666 -2.748962 -2.725759
  H 5.351080 1.460015 -4.160941
 26
 55.281871
  H 3.082160 -1.069670 1.405200
  C 3.564948 -0.246463 0.896468
  C 3.537571 1.065349 1.603482
  C 2.976129 0.960762 3.020571
  C 2.916817 2.325138 3.697104
  C 4.126677 -0.434959 -0.294006
  C 4.103019 -1.740060 -0.964836
  C 4.338365 -1.924969 -2.370014
  C 4.401746 -1.234429 -3.645315
  C 3.010677 -0.817742 -4.116133
  H 3.081928 -0.329064 -5.082308
  O 5.445412 -2.203278 -1.491258
  H 2.928190 1.768194 1.027926
  H 4.546114 1.484754 1.641320
  H 3.603803 0.293591 3.615345
  H 1.971350 0.534874 2.985855
  H 3.911394 2.758155 3.779873
  H 2.500661 2.238568 4.697841
  H 2.292321 3.010341 3.127920
  H 4.607532 0.374926 -0.821144
  H 3.550575 -2.515012 -0.442747
  H 4.877065 -1.883706 -4.386602
  H 5.044943 -0.342257 -3.567436
  H 2.554868 -0.128511 -3.411850
  H 2.362514 -1.682461 -4.218745
  H 5.684457 -3.147018 -1.322888
