 16
 0.000000
  C 1.010669 0.138893 0.386553
  C 2.473791 0.137780 0.387269
  C 3.210264 0.607254 1.559901
  H 2.545742 0.925586 2.356593
  C 3.130352 -0.323490 -0.758980
  C 4.529047 -0.392326 -0.928712
  C 5.082435 -0.855785 -2.082998
  H 4.467578 -1.185421 -2.905530
  H 6.149771 -0.909635 -2.215430
  H 0.589792 0.520135 1.311277
  H 0.633291 -0.871005 0.204738
  H 0.632758 0.723498 -0.455746
  H 3.871160 1.433913 1.291964
  H 3.872927 -0.174669 1.935614
  H 2.519809 -0.656512 -1.589203
  H 5.177357 -0.070678 -0.126329
 16
 3.263960
  C 1.011879 0.186266 0.385054
  C 2.453066 0.139193 0.387771
  C 3.198183 0.594713 1.564540
  H 2.537500 0.902759 2.368356
  C 3.112380 -0.326955 -0.762859
  C 4.515513 -0.400596 -0.931484
  C 5.069150 -0.859725 -2.078914
  H 4.459198 -1.183248 -2.906241
  H 6.136333 -0.917721 -2.203904
  H 0.564901 0.537163 1.299181
  H 0.838920 -0.858222 0.206280
  H 0.595994 0.716424 -0.464931
  H 3.842879 1.432984 1.293315
  H 3.873464 -0.179426 1.931325
  H 2.500960 -0.656752 -1.596436
  H 5.162571 -0.082743 -0.126841
 16
 8.055914
  C 0.995289 0.238070 0.367323
  C 2.444859 0.152037 0.387687
  C 3.205065 0.567928 1.565636
  H 2.554726 0.855366 2.384660
  C 3.100266 -0.319718 -0.758391
  C 4.501780 -0.402330 -0.924082
  C 5.055025 -0.857990 -2.070172
  H 4.447091 -1.166338 -2.903218
  H 6.120376 -0.928430 -2.188948
  H 0.524330 0.597541 1.271313
  H 1.015050 -0.844096 0.266644
  H 0.539648 0.651793 -0.528052
  H 3.821330 1.427243 1.293824
  H 3.896220 -0.201023 1.905316
  H 2.490876 -0.639919 -1.595988
  H 5.149137 -0.092545 -0.116182
 16
 14.110887
  C 0.995484 0.269365 0.366137
  C 2.435134 0.149802 0.378135
  C 3.190656 0.554514 1.572580
  H 2.534992 0.828024 2.391614
  C 3.092662 -0.324934 -0.770291
  C 4.492253 -0.407444 -0.929940
  C 5.055007 -0.863222 -2.078631
  H 4.452078 -1.170048 -2.916840
  H 6.122054 -0.933615 -2.191454
  H 0.518694 0.637836 1.266627
  H 1.152958 -0.811341 0.314796
  H 0.513236 0.619677 -0.540960
  H 3.793597 1.424603 1.309179
  H 3.887441 -0.210732 1.907579
  H 2.486919 -0.640880 -1.610996
  H 5.134892 -0.098378 -0.118068
 16
 19.637010
  C 0.983873 0.296141 0.365299
  C 2.434371 0.141358 0.372071
  C 3.185345 0.545154 1.577337
  H 2.524865 0.809582 2.395252
  C 3.090593 -0.332445 -0.775455
  C 4.487332 -0.412031 -0.933453
  C 5.053031 -0.866039 -2.082194
  H 4.452479 -1.172767 -2.921410
  H 6.119124 -0.934834 -2.193130
  H 0.497746 0.665488 1.254723
  H 1.267270 -0.797663 0.336153
  H 0.483323 0.610528 -0.544901
  H 3.782382 1.422828 1.321897
  H 3.886883 -0.218082 1.910832
  H 2.485619 -0.647189 -1.616458
  H 5.127946 -0.102141 -0.120171
 16
 23.070822
  C 0.984665 0.328422 0.353310
  C 2.413243 0.134266 0.369502
  C 3.183588 0.529115 1.580591
  H 2.532561 0.786512 2.405274
  C 3.076751 -0.335079 -0.781883
  C 4.483890 -0.416699 -0.936364
  C 5.056681 -0.861347 -2.083957
  H 4.461281 -1.160829 -2.930258
  H 6.124623 -0.929879 -2.188858
  H 0.493185 0.726877 1.238437
  H 1.343007 -0.766296 0.415940
  H 0.468447 0.535441 -0.575930
  H 3.769475 1.411694 1.325950
  H 3.885597 -0.238158 1.901278
  H 2.472019 -0.637625 -1.629402
  H 5.122788 -0.113830 -0.117733
 16
 25.206305
  C 0.988342 0.354767 0.347567
  C 2.407249 0.125634 0.365828
  C 3.176573 0.514578 1.580666
  H 2.519440 0.765979 2.412658
  C 3.077048 -0.338856 -0.790946
  C 4.477522 -0.419221 -0.938809
  C 5.058051 -0.857672 -2.087563
  H 4.469528 -1.153477 -2.936574
  H 6.118492 -0.923413 -2.186189
  H 0.509703 0.774078 1.214546
  H 1.408226 -0.743556 0.495459
  H 0.456260 0.481048 -0.595096
  H 3.762761 1.405821 1.331999
  H 3.876405 -0.256733 1.896067
  H 2.473595 -0.632825 -1.641061
  H 5.110655 -0.121501 -0.118388
 16
 26.661898
  C 0.988139 0.377925 0.328709
  C 2.401487 0.119610 0.366700
  C 3.176511 0.500880 1.585207
  H 2.523256 0.745511 2.416005
  C 3.075746 -0.337041 -0.798417
  C 4.473260 -0.420710 -0.941587
  C 5.057150 -0.851453 -2.090102
  H 4.470988 -1.144524 -2.942349
  H 6.120865 -0.914102 -2.186671
  H 0.507587 0.844485 1.172421
  H 1.459530 -0.717317 0.580320
  H 0.449536 0.394540 -0.604768
  H 3.763302 1.386980 1.349278
  H 3.868722 -0.278113 1.893201
  H 2.472257 -0.622129 -1.651175
  H 5.104519 -0.129557 -0.116137
 16
 28.551658
  C 0.991580 0.391072 0.326516
  C 2.392520 0.112340 0.365018
  C 3.172057 0.494692 1.586473
  H 2.524229 0.734342 2.409775
  C 3.071329 -0.342080 -0.802542
  C 4.469003 -0.424448 -0.942300
  C 5.055006 -0.850171 -2.088501
  H 4.473914 -1.140393 -2.938032
  H 6.124381 -0.908886 -2.184458
  H 0.521430 0.858366 1.154496
  H 1.503535 -0.698939 0.613938
  H 0.441373 0.368410 -0.609504
  H 3.765950 1.384934 1.359246
  H 3.862351 -0.291368 1.891837
  H 2.468013 -0.625660 -1.656222
  H 5.104842 -0.131541 -0.106557
 16
 30.036850
  C 0.988729 0.404351 0.317059
  C 2.396739 0.105082 0.367597
  C 3.173158 0.489826 1.583464
  H 2.513480 0.731736 2.419013
  C 3.081259 -0.346254 -0.802911
  C 4.467878 -0.428758 -0.937294
  C 5.060394 -0.850335 -2.089695
  H 4.478053 -1.137906 -2.948954
  H 6.125631 -0.905985 -2.183049
  H 0.504235 0.886528 1.158928
  H 1.543887 -0.694498 0.637809
  H 0.441791 0.343136 -0.606417
  H 3.764754 1.376577 1.359367
  H 3.862592 -0.299501 1.888998
  H 2.481616 -0.625549 -1.657347
  H 5.095635 -0.142498 -0.104914
 16
 31.807322
  C 0.988547 0.412582 0.312898
  C 2.392685 0.096768 0.373453
  C 3.177569 0.487248 1.591853
  H 2.526812 0.726688 2.421771
  C 3.075838 -0.350440 -0.800179
  C 4.465846 -0.433726 -0.935283
  C 5.057634 -0.847008 -2.087088
  H 4.479717 -1.127368 -2.940962
  H 6.134136 -0.906877 -2.180161
  H 0.507169 0.888007 1.141509
  H 1.575535 -0.688415 0.650124
  H 0.435641 0.326601 -0.616883
  H 3.769855 1.375293 1.364073
  H 3.863654 -0.298749 1.894612
  H 2.472749 -0.625659 -1.659475
  H 5.093940 -0.154347 -0.100828
 16
 33.401235
  C 0.992976 0.421722 0.303251
  C 2.391983 0.086323 0.376598
  C 3.178887 0.485177 1.589565
  H 2.524018 0.730435 2.424361
  C 3.078094 -0.361883 -0.797975
  C 4.463302 -0.445317 -0.929347
  C 5.058581 -0.851436 -2.084126
  H 4.484903 -1.111235 -2.943782
  H 6.122623 -0.894898 -2.179311
  H 0.500860 0.905009 1.138640
  H 1.605322 -0.688504 0.658785
  H 0.447157 0.314037 -0.614511
  H 3.769946 1.370695 1.354851
  H 3.872482 -0.309892 1.899459
  H 2.478404 -0.633846 -1.656995
  H 5.095617 -0.161578 -0.085257
 16
 34.822893
  C 0.991328 0.431101 0.302559
  C 2.396484 0.080283 0.385919
  C 3.182322 0.483744 1.596459
  H 2.527407 0.725097 2.429648
  C 3.084652 -0.357200 -0.793560
  C 4.468116 -0.439450 -0.925489
  C 5.061705 -0.841714 -2.080872
  H 4.473447 -1.122254 -2.955472
  H 6.138282 -0.904173 -2.170446
  H 0.498933 0.902735 1.130415
  H 1.636034 -0.693731 0.667576
  H 0.437677 0.307703 -0.625792
  H 3.771645 1.375042 1.361922
  H 3.876761 -0.308157 1.905725
  H 2.483420 -0.625820 -1.655971
  H 5.091322 -0.172846 -0.089902
 16
 36.346726
  C 0.999865 0.441140 0.293911
  C 2.396641 0.066838 0.390366
  C 3.184007 0.481622 1.598031
  H 2.524183 0.731509 2.433298
  C 3.084788 -0.376526 -0.788163
  C 4.465090 -0.458754 -0.919454
  C 5.059296 -0.848787 -2.080658
  H 4.482613 -1.094347 -2.948624
  H 6.141227 -0.891022 -2.177049
  H 0.505492 0.919852 1.121597
  H 1.664142 -0.702425 0.679126
  H 0.448072 0.300435 -0.628250
  H 3.773094 1.369197 1.357272
  H 3.878354 -0.311304 1.914991
  H 2.478698 -0.640507 -1.658733
  H 5.088076 -0.180723 -0.088118
