 28
 0.000000
  H 1.452817 0.166369 0.467809
  C 2.531276 0.148189 0.421290
  C 3.296385 0.615190 1.581720
  C 2.461551 1.090656 2.765239
  C 3.349648 1.553710 3.915704
  C 3.088028 -0.322581 -0.750509
  C 4.468370 -0.421843 -0.998429
  C 5.103709 -0.876106 -2.131108
  C 4.604373 -1.389603 -3.412289
  C 3.116303 -1.507096 -3.707320
  C 2.891364 -2.069082 -5.109255
  H 6.185311 -0.868270 -2.111081
  H 3.959905 1.429942 1.265640
  H 3.960756 -0.190960 1.917404
  H 1.819039 0.281717 3.117964
  H 1.818208 1.918044 2.460035
  H 3.985273 0.744765 4.268426
  H 2.740344 1.889248 4.751069
  H 3.984381 2.382258 3.609963
  H 2.401241 -0.632300 -1.520941
  H 5.117988 -0.099141 -0.194405
  H 5.068238 -2.377054 -3.546333
  H 5.069263 -0.768876 -4.191271
  H 2.641676 -0.526000 -3.651558
  H 2.640789 -2.177517 -2.989411
  H 3.330056 -1.422380 -5.865608
  H 1.827060 -2.150984 -5.314893
  H 3.329319 -3.059542 -5.209198
 28
 14.164658
  H 1.427630 0.205792 0.565711
  C 2.504427 0.186558 0.516545
  C 3.273334 0.646973 1.660780
  C 2.439130 1.123002 2.845987
  C 3.329434 1.585401 3.994846
  C 3.105913 -0.330497 -0.770681
  C 4.463899 -0.422982 -1.001638
  C 5.152199 -0.921297 -2.243854
  C 4.636239 -1.427176 -3.505782
  C 3.140965 -1.533052 -3.772020
  C 2.884618 -2.093304 -5.169407
  H 6.232311 -0.911069 -2.217694
  H 3.939675 1.459339 1.341354
  H 3.940576 -0.159804 1.992222
  H 1.796456 0.314162 3.198416
  H 1.795547 1.950106 2.540751
  H 3.965154 0.775917 4.346242
  H 2.722059 1.921326 4.831385
  H 3.964143 2.413522 3.687825
  H 2.413678 -0.637401 -1.534217
  H 5.120532 -0.103652 -0.205892
  H 5.093984 -2.417254 -3.648676
  H 5.095090 -0.810888 -4.293077
  H 2.675952 -0.548210 -3.705836
  H 2.674956 -2.198821 -3.043912
  H 3.313839 -1.449993 -5.934161
  H 1.816130 -2.167163 -5.355111
  H 3.312979 -3.087149 -5.277602
 28
 43.467552
  H 1.374950 0.232663 0.624805
  C 2.449961 0.218682 0.590277
  C 3.239795 0.663287 1.699811
  C 2.425881 1.142607 2.895258
  C 3.337023 1.597445 4.030403
  C 3.094639 -0.344117 -0.812489
  C 4.436374 -0.414414 -0.986724
  C 5.194865 -0.954695 -2.330476
  C 4.665908 -1.448915 -3.559997
  C 3.170281 -1.544543 -3.799123
  C 2.888985 -2.103930 -5.190906
  H 6.269881 -0.924311 -2.253915
  H 3.912100 1.463834 1.371500
  H 3.911767 -0.142691 2.015415
  H 1.783609 0.339160 3.258938
  H 1.783907 1.975082 2.603294
  H 3.972319 0.782793 4.370494
  H 2.745662 1.936737 4.876785
  H 3.972569 2.421370 3.713680
  H 2.380103 -0.640337 -1.550792
  H 5.112154 -0.104973 -0.215163
  H 5.119223 -2.437339 -3.716460
  H 5.119921 -0.844424 -4.357227
  H 2.708408 -0.558417 -3.731563
  H 2.707791 -2.209228 -3.067930
  H 3.310363 -1.463621 -5.962648
  H 1.817891 -2.171945 -5.361035
  H 3.309828 -3.100523 -5.304688
 28
 76.710294
  H 1.328569 0.248076 0.662752
  C 2.397338 0.244804 0.656067
  C 3.203303 0.681211 1.745837
  C 2.405305 1.167996 2.958161
  C 3.334135 1.616473 4.077757
  C 3.103131 -0.362399 -0.857269
  C 4.421864 -0.410753 -0.976549
  C 5.256440 -0.989075 -2.417015
  C 4.708525 -1.476953 -3.633293
  C 3.201288 -1.558099 -3.833845
  C 2.873095 -2.113529 -5.213746
  H 6.317724 -0.941015 -2.295531
  H 3.882484 1.478312 1.405069
  H 3.881460 -0.131265 2.050400
  H 1.762906 0.367622 3.327477
  H 1.764119 2.002508 2.671793
  H 3.968823 0.797781 4.408441
  H 2.756944 1.959659 4.932445
  H 3.969775 2.435985 3.751242
  H 2.367884 -0.650018 -1.575167
  H 5.120516 -0.108303 -0.221450
  H 5.154361 -2.472382 -3.800537
  H 5.155712 -0.876555 -4.443773
  H 2.757533 -0.567029 -3.746091
  H 2.757827 -2.212073 -3.083783
  H 3.278507 -1.478469 -5.997725
  H 1.796695 -2.169470 -5.352133
  H 3.278834 -3.114399 -5.339348
 28
 110.300005
  H 1.255660 0.270559 0.720240
  C 2.319510 0.277092 0.737900
  C 3.156333 0.708515 1.814733
  C 2.391388 1.205084 3.050760
  C 3.356984 1.643794 4.145122
  C 3.083379 -0.375760 -0.889821
  C 4.379407 -0.404370 -0.960716
  C 5.299060 -1.018508 -2.490129
  C 4.744320 -1.510067 -3.714849
  C 3.230983 -1.586622 -3.905094
  C 2.885120 -2.141329 -5.283547
  H 6.348077 -0.951370 -2.322051
  H 3.839854 1.498890 1.456342
  H 3.838906 -0.111188 2.102194
  H 1.751098 0.408951 3.434660
  H 1.752341 2.046438 2.777374
  H 3.991068 0.818351 4.458708
  H 2.806819 1.993300 5.014923
  H 3.991985 2.456094 3.801136
  H 2.321075 -0.652844 -1.581159
  H 5.101632 -0.108568 -0.222867
  H 5.188838 -2.510142 -3.885708
  H 5.189915 -0.908877 -4.531105
  H 2.796298 -0.592672 -3.807633
  H 2.796310 -2.235784 -3.146079
  H 3.284864 -1.508113 -6.071677
  H 1.807207 -2.192596 -5.411064
  H 3.284743 -3.143807 -5.413477
 28
 141.450215
  H 1.201356 0.310122 0.818047
  C 2.266624 0.317763 0.838697
  C 3.116437 0.739883 1.892876
  C 2.372762 1.241599 3.141792
  C 3.357204 1.673043 4.218738
  C 3.071097 -0.382637 -0.907878
  C 4.363264 -0.405158 -0.963688
  C 5.342747 -1.061454 -2.597459
  C 4.779132 -1.546698 -3.805569
  C 3.263360 -1.614796 -3.974770
  C 2.896165 -2.166602 -5.345915
  H 6.389509 -0.988491 -2.415385
  H 3.800720 1.525387 1.522453
  H 3.799464 -0.084795 2.168170
  H 1.734078 0.449864 3.534265
  H 1.735601 2.085908 2.877708
  H 3.990611 0.843103 4.521947
  H 2.822985 2.026029 5.097182
  H 3.991793 2.481243 3.864357
  H 2.290502 -0.652377 -1.580893
  H 5.102219 -0.115708 -0.241844
  H 5.217355 -2.549023 -3.981723
  H 5.218178 -0.947312 -4.627390
  H 2.837773 -0.618649 -3.870130
  H 2.837764 -2.260580 -3.209011
  H 3.288649 -1.535487 -6.139292
  H 1.816256 -2.211914 -5.458624
  H 3.288518 -3.171208 -5.481037
 28
 166.953045
  H 1.114860 0.330568 0.866519
  C 2.200426 0.348838 0.912965
  C 3.065850 0.766996 1.958855
  C 2.355430 1.271836 3.219028
  C 3.374363 1.694987 4.276466
  C 3.078499 -0.397893 -0.951821
  C 4.338463 -0.400299 -0.956234
  C 5.395053 -1.091131 -2.671957
  C 4.817033 -1.579299 -3.883322
  C 3.301277 -1.634287 -4.022368
  C 2.895246 -2.186654 -5.393826
  H 6.462561 -1.005480 -2.458977
  H 3.745134 1.543858 1.581072
  H 3.744696 -0.056275 2.221486
  H 1.718707 0.483526 3.622916
  H 1.719410 2.121689 2.966879
  H 4.008189 0.858293 4.565204
  H 2.862280 2.051903 5.167293
  H 4.008919 2.499450 3.907841
  H 2.271858 -0.655812 -1.595641
  H 5.096003 -0.124246 -0.267987
  H 5.239591 -2.583286 -4.067762
  H 5.239838 -0.983882 -4.712227
  H 2.889645 -0.629331 -3.906095
  H 2.888498 -2.277409 -3.241916
  H 3.276517 -1.558198 -6.198629
  H 1.811048 -2.221668 -5.482434
  H 3.275538 -3.197962 -5.538044
 28
 187.009006
  H 1.081320 0.357589 0.929650
  C 2.148059 0.380456 0.987896
  C 3.025711 0.791159 2.017646
  C 2.333503 1.303046 3.297931
  C 3.370008 1.716176 4.332892
  C 3.086872 -0.416745 -1.004815
  C 4.330572 -0.400942 -0.962796
  C 5.450712 -1.126844 -2.762710
  C 4.859516 -1.610584 -3.960179
  C 3.332668 -1.652781 -4.067470
  C 2.892791 -2.198290 -5.419405
  H 6.491161 -1.035586 -2.535400
  H 3.705578 1.564627 1.629325
  H 3.705053 -0.037450 2.269160
  H 1.698702 0.518239 3.710541
  H 1.699732 2.156764 3.055754
  H 4.002001 0.875059 4.609627
  H 2.874695 2.075787 5.232263
  H 4.002645 2.515833 3.953884
  H 2.259752 -0.660897 -1.615133
  H 5.112471 -0.137114 -0.304577
  H 5.268551 -2.619803 -4.150124
  H 5.269052 -1.015801 -4.797273
  H 2.935799 -0.644869 -3.941638
  H 2.934695 -2.290341 -3.277304
  H 3.261097 -1.574183 -6.231719
  H 1.806953 -2.222946 -5.482184
  H 3.260088 -3.211810 -5.570749
 28
 200.222970
  H 1.011555 0.408220 1.058842
  C 2.087379 0.421991 1.093416
  C 2.943056 0.832055 2.120446
  C 2.313487 1.355690 3.429782
  C 3.393474 1.755006 4.429026
  C 3.075717 -0.430189 -1.036961
  C 4.294764 -0.404405 -0.972913
  C 5.458305 -1.166896 -2.862205
  C 4.888887 -1.647964 -4.051967
  C 3.367737 -1.690719 -4.163352
  C 2.932782 -2.237755 -5.518576
  H 6.509196 -1.080710 -2.646202
  H 3.622938 1.591007 1.709358
  H 3.622740 -0.001343 2.345670
  H 1.683001 0.579994 3.865389
  H 1.683697 2.218378 3.210243
  H 4.022496 0.905854 4.683639
  H 2.938091 2.121484 5.345184
  H 4.022907 2.545372 4.027930
  H 2.217898 -0.656975 -1.601615
  H 5.113877 -0.158983 -0.362038
  H 5.302194 -2.655014 -4.242962
  H 5.304324 -1.056646 -4.887914
  H 2.971441 -0.683304 -4.036790
  H 2.969175 -2.326288 -3.372867
  H 3.302267 -1.614823 -6.329403
  H 1.849117 -2.263069 -5.584825
  H 3.300122 -3.250059 -5.668841
 28
 204.677988
  H 0.966718 0.460920 1.194629
  C 2.046015 0.466087 1.206830
  C 2.891168 0.878451 2.237177
  C 2.290725 1.407100 3.557437
  C 3.389025 1.799724 4.537248
  C 3.075144 -0.437648 -1.049712
  C 4.285601 -0.408777 -0.979767
  C 5.487906 -1.213817 -2.976526
  C 4.921783 -1.692681 -4.162666
  C 3.396429 -1.732860 -4.268712
  C 2.955437 -2.277983 -5.622022
  H 6.547086 -1.136305 -2.782027
  H 3.572209 1.629127 1.810708
  H 3.572589 0.041068 2.446315
  H 1.662407 0.635359 4.004412
  H 1.662488 2.274103 3.348010
  H 4.017169 0.946109 4.781991
  H 2.951961 2.170004 5.461745
  H 4.016899 2.586412 4.124848
  H 2.197734 -0.655640 -1.590950
  H 5.129337 -0.174057 -0.396663
  H 5.337536 -2.697590 -4.357824
  H 5.340246 -1.104706 -4.999317
  H 3.002418 -0.724857 -4.138209
  H 2.999788 -2.367030 -3.475905
  H 3.322948 -1.654570 -6.434796
  H 1.870374 -2.301348 -5.684030
  H 3.320492 -3.291836 -5.774645
 28
 207.059193
  H 0.929545 0.510168 1.319471
  C 2.010985 0.509232 1.315298
  C 2.850138 0.922752 2.347399
  C 2.266772 1.453102 3.672685
  C 3.376997 1.841459 4.640340
  C 3.082260 -0.444637 -1.066093
  C 4.285651 -0.410526 -0.984450
  C 5.525699 -1.259882 -3.089543
  C 4.953116 -1.737352 -4.272858
  C 3.426997 -1.770971 -4.363815
  C 2.968556 -2.313864 -5.712633
  H 6.590153 -1.189971 -2.913791
  H 3.533212 1.668170 1.910342
  H 3.534402 0.082470 2.544957
  H 1.640067 0.683609 4.125513
  H 1.639247 2.321924 3.469279
  H 4.004357 0.985902 4.878615
  H 2.951445 2.213160 5.568980
  H 4.003173 2.625692 4.221699
  H 2.189929 -0.653404 -1.582952
  H 5.150885 -0.187088 -0.430268
  H 5.366590 -2.742878 -4.474017
  H 5.369941 -1.153068 -5.113968
  H 3.039825 -0.761816 -4.227061
  H 3.036679 -2.401762 -3.565905
  H 3.329535 -1.692414 -6.528987
  H 1.883511 -2.332123 -5.762717
  H 3.326636 -3.328857 -5.869478
 28
 208.634112
  H 0.896556 0.556207 1.435458
  C 1.978677 0.551174 1.420195
  C 2.816387 0.965141 2.452921
  C 2.243146 1.496476 3.781549
  C 3.361142 1.881858 4.740959
  C 3.092700 -0.451814 -1.084758
  C 4.290987 -0.411415 -0.988672
  C 5.568774 -1.305832 -3.202973
  C 4.985113 -1.781175 -4.380992
  C 3.456407 -1.806784 -4.453154
  C 2.976213 -2.347081 -5.795610
  H 6.636821 -1.242052 -3.042232
  H 3.501329 1.705888 2.008732
  H 3.503072 0.123723 2.641777
  H 1.617253 0.728084 4.237766
  H 1.615796 2.366439 3.581685
  H 3.988258 1.024600 4.975134
  H 2.942390 2.254590 5.672839
  H 3.986434 2.665015 4.318166
  H 2.185503 -0.652272 -1.579724
  H 5.175103 -0.198849 -0.462408
  H 5.393488 -2.787786 -4.588364
  H 5.397427 -1.200819 -5.227394
  H 3.077185 -0.795119 -4.309540
  H 3.073570 -2.434300 -3.648485
  H 3.329550 -1.727362 -6.617385
  H 1.889797 -2.358994 -5.830685
  H 3.326186 -3.364741 -5.957319
 28
 209.512047
  H 0.864035 0.601471 1.549363
  C 1.946726 0.593427 1.525704
  C 2.784991 1.006731 2.556538
  C 2.220391 1.538680 3.887861
  C 3.344979 1.921401 4.839994
  C 3.102608 -0.458120 -1.102888
  C 4.296251 -0.411180 -0.991581
  C 5.611868 -1.351149 -3.315123
  C 5.015009 -1.824602 -4.487894
  C 3.484925 -1.842051 -4.541153
  C 2.983501 -2.379704 -5.876483
  H 6.682456 -1.292448 -3.166526
  H 3.471649 1.743425 2.106426
  H 3.473961 0.164540 2.737855
  H 1.595421 0.771274 4.346646
  H 1.593317 2.409355 3.690991
  H 3.971625 1.063057 5.070526
  H 2.932195 2.294671 5.774065
  H 3.969164 2.703402 4.413919
  H 2.183416 -0.649817 -1.574990
  H 5.197420 -0.209361 -0.492871
  H 5.417035 -2.832816 -4.701245
  H 5.421624 -1.248058 -5.339976
  H 3.114047 -0.828420 -4.391259
  H 3.109827 -2.465913 -3.730294
  H 3.329035 -1.762337 -6.702961
  H 1.897001 -2.385207 -5.896679
  H 3.325042 -3.399232 -6.042531
 28
 209.848475
  H 0.831303 0.645268 1.660589
  C 1.913888 0.635161 1.630911
  C 2.754904 1.047896 2.659429
  C 2.198523 1.580800 3.993642
  C 3.329512 1.961256 4.938845
  C 3.111426 -0.465262 -1.121070
  C 4.300866 -0.411680 -0.994175
  C 5.654343 -1.396613 -3.427148
  C 5.044074 -1.867308 -4.593164
  C 3.512625 -1.876738 -4.627775
  C 2.990705 -2.411611 -5.956452
  H 6.726534 -1.342146 -3.288521
  H 3.443150 1.780750 2.203985
  H 3.446068 0.205327 2.834069
  H 1.574443 0.814183 4.455080
  H 1.571611 2.452261 3.799401
  H 3.955922 1.101653 5.166115
  H 2.922205 2.335327 5.875324
  H 3.952737 2.742376 4.509356
  H 2.179280 -0.648467 -1.571177
  H 5.217632 -0.220577 -0.522891
  H 5.439174 -2.877067 -4.812423
  H 5.444328 -1.294146 -5.450652
  H 3.149745 -0.860804 -4.471673
  H 3.144981 -2.497625 -3.810804
  H 3.328873 -1.795928 -6.787694
  H 1.903596 -2.410927 -5.962277
  H 3.324289 -3.433426 -6.126848
