 28
 0.000000
  C 0.960330 0.147800 0.420792
  C 2.433271 0.140820 0.402217
  C 3.232786 0.605313 1.556832
  C 2.471710 1.097584 2.782044
  H 3.164455 1.408114 3.554022
  C 3.038361 -0.326765 -0.761441
  C 4.419501 -0.414145 -0.979834
  C 5.086039 -0.861508 -2.095210
  C 4.613754 -1.381111 -3.391222
  C 3.130143 -1.508752 -3.710994
  C 2.934473 -2.072379 -5.116902
  H 6.166659 -0.849110 -2.064154
  H 0.538996 0.520160 1.347079
  H 0.583687 -0.862392 0.253414
  H 0.583021 0.760619 -0.399251
  H 3.890973 1.411551 1.213602
  H 3.891569 -0.213707 1.867022
  H 1.839302 0.308988 3.185405
  H 1.838798 1.945615 2.527549
  H 2.373788 -0.642571 -1.546789
  H 5.045418 -0.085357 -0.161042
  H 5.081971 -2.366842 -3.513163
  H 5.082679 -0.753153 -4.160369
  H 2.648232 -0.531033 -3.665104
  H 2.647584 -2.183615 -3.002505
  H 3.382324 -1.422168 -5.864947
  H 1.874339 -2.161737 -5.340828
  H 3.381731 -3.059558 -5.208439
 28
 0.632143
  C 0.965989 -0.195344 0.553457
  C 2.431536 -0.093269 0.449626
  C 3.223178 0.747756 1.371330
  C 2.464365 1.498795 2.455359
  H 3.169302 2.057227 3.066339
  C 3.046619 -0.796876 -0.580780
  C 4.433574 -0.873156 -0.797133
  C 5.093322 -1.203783 -1.953529
  C 4.618364 -1.423102 -3.324292
  C 3.129550 -1.443052 -3.646134
  C 2.906554 -1.585160 -5.150444
  H 6.172836 -1.254239 -1.876613
  H 0.553209 0.370607 1.378001
  H 0.675653 -1.242118 0.653388
  H 0.503064 0.143242 -0.374650
  H 3.796379 1.468145 0.775461
  H 3.977956 0.109245 1.846090
  H 1.925642 0.817177 3.110477
  H 1.760472 2.210432 2.029411
  H 2.396261 -1.352221 -1.238394
  H 5.066409 -0.631359 0.045980
  H 5.077924 -2.357384 -3.673208
  H 5.105844 -0.657029 -3.944164
  H 2.663753 -0.515440 -3.307897
  H 2.649773 -2.283165 -3.146420
  H 3.353160 -0.754939 -5.691695
  H 1.843935 -1.600787 -5.377330
  H 3.342854 -2.509303 -5.523897
 28
 3.346991
  C 0.982011 -0.427815 0.591538
  C 2.441484 -0.296841 0.423293
  C 3.222052 0.762890 1.102281
  C 2.472346 1.678395 2.059078
  H 3.165626 2.390276 2.491820
  C 3.066727 -1.157279 -0.464891
  C 4.467862 -1.220372 -0.679403
  C 5.140654 -1.368411 -1.853683
  C 4.636058 -1.359173 -3.232352
  C 3.138981 -1.332798 -3.475653
  C 2.827360 -1.203537 -4.964217
  H 6.219165 -1.403809 -1.792594
  H 0.568093 0.284943 1.295479
  H 0.737148 -1.441420 0.914115
  H 0.481349 -0.302899 -0.371305
  H 3.714827 1.376089 0.338691
  H 4.046293 0.276941 1.640442
  H 2.020207 1.117762 2.873951
  H 1.698528 2.241405 1.546960
  H 2.442233 -1.871055 -0.979896
  H 5.078211 -1.116552 0.211979
  H 5.073346 -2.227255 -3.741672
  H 5.100366 -0.498954 -3.734089
  H 2.698175 -0.484880 -2.946404
  H 2.683485 -2.249781 -3.101283
  H 3.254558 -0.289935 -5.375752
  H 1.749661 -1.176685 -5.127807
  H 3.230719 -2.048292 -5.520327
 28
 7.857957
  C 1.036721 -0.628153 0.576377
  C 2.487449 -0.489747 0.352773
  C 3.250916 0.685143 0.823283
  C 2.482959 1.761657 1.567130
  H 3.166507 2.551998 1.866217
  C 3.136740 -1.482555 -0.357617
  C 4.552597 -1.505523 -0.606173
  C 5.209205 -1.390294 -1.773510
  C 4.630443 -1.145185 -3.114059
  C 3.118530 -1.222469 -3.242588
  C 2.655893 -0.897002 -4.661755
  H 6.290318 -1.402565 -1.750650
  H 0.613436 0.194798 1.141223
  H 0.830380 -1.568441 1.092308
  H 0.512870 -0.705522 -0.378423
  H 3.759548 1.139307 -0.033645
  H 4.069585 0.316455 1.455679
  H 2.016377 1.367603 2.465712
  H 1.713960 2.208219 0.939561
  H 2.555194 -2.334999 -0.683037
  H 5.154901 -1.574432 0.294852
  H 5.083953 -1.874972 -3.796809
  H 4.989395 -0.168793 -3.460730
  H 2.660774 -0.506272 -2.551467
  H 2.776057 -2.220264 -2.980618
  H 2.969495 0.102205 -4.955466
  H 1.571459 -0.946870 -4.732052
  H 3.071856 -1.605954 -5.372541
 28
 11.765914
  C 1.114195 -0.812128 0.581060
  C 2.546986 -0.620394 0.310909
  C 3.252927 0.639952 0.617248
  C 2.432340 1.784115 1.183672
  H 3.078056 2.639726 1.364200
  C 3.254696 -1.665399 -0.261324
  C 4.659903 -1.617676 -0.595933
  C 5.269894 -1.345070 -1.741313
  C 4.607183 -0.998858 -3.038001
  C 3.086799 -1.042127 -3.039940
  C 2.511580 -0.713334 -4.417361
  H 6.348787 -1.367802 -1.783480
  H 0.645578 0.054939 1.030678
  H 0.976061 -1.678245 1.231349
  H 0.585479 -1.067133 -0.339806
  H 3.768611 0.969524 -0.293814
  H 4.076726 0.410509 1.305440
  H 1.970983 1.513565 2.130635
  H 1.651721 2.092417 0.492070
  H 2.755870 -2.620506 -0.380139
  H 5.283948 -1.878945 0.259311
  H 4.986180 -1.698726 -3.788564
  H 4.951339 -0.002427 -3.335239
  H 2.695854 -0.314719 -2.326713
  H 2.754833 -2.040920 -2.756212
  H 2.817056 0.281524 -4.732683
  H 1.425856 -0.746964 -4.398393
  H 2.860548 -1.430306 -5.157897
 28
 9.408509
  C 1.253067 -0.966102 0.710432
  C 2.650782 -0.696061 0.329517
  C 3.267853 0.644473 0.465402
  C 2.390858 1.767279 0.989266
  H 2.971581 2.685186 1.042823
  C 3.420075 -1.727184 -0.163628
  C 4.780674 -1.622567 -0.626132
  C 5.275629 -1.258453 -1.815577
  C 4.512422 -0.930340 -3.046939
  C 2.998107 -0.883357 -2.934546
  C 2.346902 -0.644213 -4.293188
  H 6.346990 -1.265699 -1.951092
  H 0.747380 -0.095394 1.109486
  H 1.217692 -1.769341 1.448308
  H 0.695012 -1.339174 -0.151162
  H 3.673052 0.917197 -0.519232
  H 4.156651 0.557399 1.099862
  H 2.025367 1.551839 1.989760
  H 1.539880 1.945460 0.336885
  H 3.028114 -2.736062 -0.108499
  H 5.486214 -1.989990 0.119092
  H 4.797991 -1.667999 -3.805145
  H 4.882514 0.030437 -3.421393
  H 2.691339 -0.089750 -2.256713
  H 2.637324 -1.836448 -2.536948
  H 2.673584 0.304869 -4.712125
  H 1.264605 -0.618825 -4.199237
  H 2.607102 -1.433180 -4.995008
 28
 7.033095
  C 1.288205 -1.000284 0.747033
  C 2.683229 -0.742323 0.335305
  C 3.289306 0.608165 0.385412
  C 2.391528 1.761158 0.788237
  H 2.964114 2.684357 0.773552
  C 3.463536 -1.794581 -0.074494
  C 4.789691 -1.709812 -0.604168
  C 5.233773 -1.213074 -1.776302
  C 4.453670 -0.816374 -2.969497
  C 2.933502 -0.795658 -2.882028
  C 2.311658 -0.568091 -4.255581
  H 6.300802 -1.208240 -1.941138
  H 0.784292 -0.111734 1.109875
  H 1.263797 -1.766863 1.522868
  H 0.720919 -1.412731 -0.091837
  H 3.731073 0.808193 -0.597534
  H 4.151686 0.573388 1.058679
  H 2.004652 1.633173 1.795026
  H 1.554827 1.871809 0.102897
  H 3.117038 -2.800383 0.140412
  H 5.533238 -2.199949 0.022802
  H 4.752161 -1.505433 -3.769138
  H 4.821105 0.163507 -3.299608
  H 2.593826 -0.007589 -2.213348
  H 2.580438 -1.752708 -2.486001
  H 2.631182 0.385346 -4.668507
  H 1.227410 -0.559546 -4.187396
  H 2.598636 -1.352244 -4.951315
 28
 5.481664
  C 1.317010 -1.013986 0.762814
  C 2.714107 -0.777109 0.346463
  C 3.325756 0.577211 0.373780
  C 2.395955 1.758851 0.611003
  H 2.972341 2.681941 0.583038
  C 3.490999 -1.856798 -0.020281
  C 4.783001 -1.815112 -0.619416
  C 5.211811 -1.198241 -1.745829
  C 4.423033 -0.706195 -2.894388
  C 2.902109 -0.759870 -2.828650
  C 2.293044 -0.545841 -4.209117
  H 6.279144 -1.185794 -1.927403
  H 0.837822 -0.125675 1.151906
  H 1.273178 -1.805166 1.509992
  H 0.736615 -1.378657 -0.086247
  H 3.879097 0.718922 -0.561073
  H 4.106105 0.577096 1.146586
  H 1.917048 1.705367 1.587623
  H 1.624539 1.817406 -0.153812
  H 3.152291 -2.844847 0.271921
  H 5.513458 -2.446149 -0.115671
  H 4.751444 -1.308174 -3.752082
  H 4.759946 0.308196 -3.136539
  H 2.511815 0.004030 -2.158546
  H 2.588822 -1.736203 -2.449031
  H 2.572043 0.424768 -4.607093
  H 1.209521 -0.589890 -4.157588
  H 2.627242 -1.308600 -4.908152
