 28
 0.000000
  C 0.965705 0.139990 0.400139
  C 2.439268 0.140444 0.400550
  C 3.227599 0.607049 1.561310
  C 2.458622 1.098336 2.784303
  C 3.419277 1.540251 3.884004
  C 3.050266 -0.325671 -0.759731
  C 4.431882 -0.412554 -0.976928
  C 5.100159 -0.859682 -2.091715
  C 4.628628 -1.379480 -3.387314
  C 3.145341 -1.505118 -3.700616
  H 3.012489 -1.905525 -4.698788
  H 6.180741 -0.846768 -2.060030
  H 0.529984 0.509392 1.319488
  H 0.596532 -0.872143 0.227874
  H 0.596055 0.751249 -0.424549
  H 3.886456 1.415455 1.223856
  H 3.886725 -0.209884 1.876972
  H 1.821894 0.302842 3.175787
  H 1.821709 1.943442 2.516658
  H 4.055138 0.716755 4.201398
  H 2.863733 1.888565 4.751211
  H 4.054949 2.354562 3.543375
  H 2.377712 -0.639269 -1.539839
  H 5.056561 -0.082769 -0.155855
  H 5.097328 -2.364935 -3.508804
  H 5.097444 -0.751373 -4.156255
  H 2.660282 -0.532240 -3.660718
  H 2.660212 -2.180681 -2.999459
 28
 -0.200097
  C 0.956026 0.022857 0.460123
  C 2.428684 0.058973 0.424872
  C 3.219155 0.609181 1.544187
  C 2.456182 1.114270 2.766300
  C 3.425022 1.616122 3.831016
  C 3.042181 -0.438415 -0.722599
  C 4.422657 -0.593722 -0.907018
  C 5.087055 -0.986513 -2.043510
  C 4.632960 -1.342248 -3.392387
  C 3.156546 -1.333231 -3.755232
  H 3.044504 -1.618492 -4.799358
  H 6.166889 -1.041202 -1.954452
  H 0.536562 0.655537 1.232709
  H 0.626011 -1.002047 0.647962
  H 0.534716 0.305525 -0.503297
  H 3.842145 1.423892 1.158401
  H 3.926110 -0.160156 1.875072
  H 1.849613 0.312097 3.191169
  H 1.791450 1.935237 2.487917
  H 4.089728 0.819904 4.159922
  H 2.878751 1.977509 4.699666
  H 4.031198 2.435893 3.450964
  H 2.367482 -0.706968 -1.517952
  H 5.050023 -0.390483 -0.049999
  H 5.051242 -2.336361 -3.604788
  H 5.177394 -0.679624 -4.080401
  H 2.728307 -0.340843 -3.633603
  H 2.599033 -2.048869 -3.155841
 28
 0.029085
  C 0.948849 -0.107879 0.537358
  C 2.414252 -0.027793 0.442659
  C 3.210035 0.627520 1.500187
  C 2.458168 1.144466 2.721329
  C 3.429360 1.730698 3.741741
  C 3.021307 -0.568601 -0.686121
  C 4.394603 -0.800311 -0.845488
  C 5.072746 -1.118470 -1.994801
  C 4.647424 -1.265008 -3.391524
  C 3.190966 -1.093635 -3.788431
  H 3.099136 -1.221744 -4.864545
  H 6.140107 -1.264126 -1.875045
  H 0.523792 0.721650 1.091783
  H 0.684238 -1.021122 1.077178
  H 0.482217 -0.173849 -0.442365
  H 3.770347 1.454595 1.049449
  H 3.978751 -0.078444 1.837780
  H 1.898981 0.332452 3.188412
  H 1.750352 1.923284 2.431708
  H 4.137253 0.979035 4.083784
  H 2.888844 2.100871 4.609244
  H 3.988680 2.560597 3.315696
  H 2.347642 -0.787427 -1.497759
  H 4.998265 -0.743682 0.051234
  H 4.998763 -2.253082 -3.719725
  H 5.266509 -0.568751 -3.974336
  H 2.829955 -0.098916 -3.539992
  H 2.561695 -1.843174 -3.315539
 28
 3.759999
  C 0.927628 -0.433245 0.705196
  C 2.371349 -0.244428 0.491442
  C 3.184109 0.572777 1.413211
  C 2.464054 1.193397 2.604568
  C 3.451959 1.936934 3.499509
  C 2.960839 -0.861914 -0.604867
  C 4.316389 -1.180481 -0.766287
  C 5.030584 -1.319206 -1.925871
  C 4.684691 -1.074039 -3.334045
  C 3.271941 -0.669659 -3.720091
  H 3.221720 -0.540463 -4.798844
  H 6.070637 -1.600204 -1.798445
  H 0.458532 0.472475 1.076553
  H 0.783104 -1.216205 1.451782
  H 0.421266 -0.749020 -0.203123
  H 3.672380 1.363565 0.834835
  H 4.010417 -0.054189 1.774295
  H 1.970496 0.415462 3.188439
  H 1.705289 1.900868 2.265473
  H 4.220763 1.265004 3.875023
  H 2.936760 2.368722 4.354622
  H 3.937694 2.745015 2.956736
  H 2.291510 -0.889933 -1.452317
  H 4.853844 -1.401366 0.148859
  H 4.965817 -1.979982 -3.886266
  H 5.391763 -0.315061 -3.695352
  H 2.993723 0.274078 -3.257997
  H 2.553851 -1.439332 -3.451847
 28
 12.682403
  C 0.983510 -0.660163 0.775893
  C 2.393242 -0.324662 0.521377
  C 3.154349 0.617463 1.366914
  C 2.441327 1.175536 2.596681
  C 3.395407 2.048616 3.408590
  C 3.004952 -0.958223 -0.555352
  C 4.316549 -1.372827 -0.779245
  C 5.036343 -1.385486 -1.944792
  C 4.693014 -0.980954 -3.320742
  C 3.295693 -0.473935 -3.639153
  H 3.240307 -0.226886 -4.696588
  H 6.033640 -1.792854 -1.869905
  H 0.475523 0.176341 1.239482
  H 0.937038 -1.535217 1.419664
  H 0.458854 -0.902204 -0.145377
  H 3.474133 1.453869 0.735757
  H 4.084614 0.118543 1.667841
  H 2.075326 0.364560 3.225869
  H 1.594927 1.790084 2.291829
  H 4.260554 1.477563 3.741105
  H 2.892239 2.439163 4.288608
  H 3.747632 2.892936 2.820270
  H 2.328339 -0.735035 -1.382635
  H 4.816153 -1.779631 0.092809
  H 4.910194 -1.850775 -3.957165
  H 5.431633 -0.229254 -3.624100
  H 3.066628 0.430196 -3.077796
  H 2.550708 -1.233387 -3.445186
 28
 28.677760
  C 1.169870 -0.945659 0.834683
  C 2.526999 -0.432390 0.561264
  C 3.181807 0.590404 1.402554
  C 2.340926 1.214136 2.512417
  C 3.189835 2.190358 3.320757
  C 3.201248 -1.069679 -0.483786
  C 4.428549 -1.547261 -0.876241
  C 5.046588 -1.495158 -2.099831
  C 4.621283 -0.893357 -3.375039
  C 3.286923 -0.165596 -3.447140
  H 3.148380 0.222504 -4.450650
  H 5.981629 -2.031567 -2.173562
  H 0.580068 -0.167094 1.290199
  H 1.237150 -1.828660 1.472710
  H 0.643395 -1.247903 -0.078004
  H 3.579452 1.380476 0.761613
  H 4.059143 0.107146 1.850467
  H 1.964498 0.440285 3.181822
  H 1.494650 1.758908 2.091758
  H 4.031458 1.681626 3.788067
  H 2.596436 2.646272 4.106200
  H 3.579742 2.987552 2.683967
  H 2.462058 -0.582048 -1.164822
  H 4.926875 -2.140420 -0.108858
  H 4.612587 -1.710473 -4.109794
  H 5.422333 -0.232081 -3.704850
  H 3.266969 0.671937 -2.757126
  H 2.459603 -0.838861 -3.249267
 28
 43.502950
  C 1.242349 -1.085686 0.860360
  C 2.592773 -0.536981 0.511212
  C 3.189503 0.587548 1.320992
  C 2.290936 1.194092 2.401523
  C 3.059750 2.268519 3.172341
  C 3.389727 -1.202038 -0.385168
  C 4.450279 -1.793302 -0.965893
  C 5.003410 -1.667647 -2.222171
  C 4.590292 -0.802787 -3.350523
  C 3.336697 0.044532 -3.181622
  H 3.167692 0.621467 -4.089865
  H 5.862272 -2.288267 -2.433615
  H 0.605826 -0.296407 1.228545
  H 1.359017 -1.839487 1.629452
  H 0.762357 -1.559465 0.011178
  H 3.511103 1.390885 0.642535
  H 4.096803 0.200670 1.791019
  H 1.972408 0.423667 3.104178
  H 1.404258 1.653719 1.956356
  H 3.947118 1.852421 3.638764
  H 2.435553 2.690510 3.954371
  H 3.366803 3.076452 2.514246
  H 2.551481 -0.374375 -0.809449
  H 4.934696 -2.492805 -0.289970
  H 4.480831 -1.446035 -4.232843
  H 5.440184 -0.146731 -3.584226
  H 3.455042 0.750206 -2.361095
  H 2.459870 -0.587706 -3.025350
 28
 45.327971
  C 1.303006 -1.197212 0.915724
  C 2.605922 -0.554166 0.470238
  C 3.176384 0.618600 1.278626
  C 2.260058 1.188955 2.351001
  C 2.975976 2.301547 3.103776
  C 3.455657 -1.230694 -0.368092
  C 4.432791 -1.838812 -1.019103
  C 4.971288 -1.722856 -2.288254
  C 4.588512 -0.780093 -3.361397
  C 3.436199 0.169565 -3.074740
  H 3.264015 0.802028 -3.941751
  H 5.779810 -2.392228 -2.538368
  H 0.649387 -0.447022 1.344259
  H 1.507173 -1.957010 1.664647
  H 0.793052 -1.676375 0.085981
  H 3.451744 1.421641 0.596053
  H 4.096746 0.279091 1.756718
  H 1.977049 0.413517 3.061417
  H 1.357929 1.603388 1.903283
  H 3.875258 1.927863 3.585802
  H 2.328101 2.714001 3.872151
  H 3.258106 3.107868 2.431420
  H 2.368635 -0.209704 -0.621274
  H 4.852422 -2.622882 -0.385177
  H 4.362955 -1.370617 -4.257213
  H 5.482775 -0.202944 -3.626835
  H 3.672364 0.817097 -2.233832
  H 2.521310 -0.385938 -2.884313
 28
 47.002655
  C 1.294310 -1.235960 0.887210
  C 2.598973 -0.536604 0.423869
  C 3.159289 0.636598 1.246070
  C 2.256763 1.172006 2.353886
  C 2.961177 2.308931 3.089289
  C 3.459803 -1.203072 -0.410726
  C 4.417779 -1.841588 -1.052931
  C 4.982002 -1.749019 -2.308529
  C 4.616708 -0.793434 -3.371570
  C 3.470321 0.152361 -3.053611
  H 3.289645 0.806373 -3.902863
  H 5.775301 -2.438467 -2.550779
  H 0.692030 -0.519012 1.427154
  H 1.532458 -2.067218 1.547672
  H 0.719462 -1.630869 0.057229
  H 3.399325 1.456226 0.567171
  H 4.099027 0.311566 1.697774
  H 2.027086 0.384073 3.071226
  H 1.324780 1.559921 1.939229
  H 3.889010 1.964691 3.540023
  H 2.325383 2.697740 3.880663
  H 3.193662 3.126440 2.410151
  H 2.094292 -0.184792 -0.525462
  H 4.796809 -2.645509 -0.413724
  H 4.384565 -1.365996 -4.278091
  H 5.516499 -0.219209 -3.625219
  H 3.715243 0.774181 -2.196085
  H 2.559497 -0.408959 -2.864688
 28
 47.532585
  C 1.338637 -1.257831 0.875400
  C 2.580678 -0.468691 0.360914
  C 3.135939 0.700295 1.196172
  C 2.259455 1.157043 2.359105
  C 2.937961 2.309825 3.097520
  C 3.436893 -1.145306 -0.469720
  C 4.375303 -1.850986 -1.072461
  C 4.960866 -1.797392 -2.311193
  C 4.644371 -0.817395 -3.358364
  C 3.534977 0.160645 -3.013274
  H 3.363439 0.836219 -3.847360
  H 5.721639 -2.519992 -2.544618
  H 0.768786 -0.592734 1.520829
  H 1.668628 -2.129523 1.440365
  H 0.712953 -1.617667 0.068290
  H 3.304664 1.549878 0.531055
  H 4.113227 0.410199 1.592589
  H 2.105395 0.338628 3.064368
  H 1.290124 1.506640 1.998292
  H 3.900983 2.001752 3.498732
  H 2.318709 2.644842 3.926349
  H 3.100013 3.155889 2.433516
  H 1.882338 -0.061969 -0.446973
  H 4.705545 -2.665722 -0.420707
  H 4.390064 -1.364329 -4.273657
  H 5.565371 -0.273772 -3.598146
  H 3.809073 0.757170 -2.145994
  H 2.609560 -0.375135 -2.818411
 28
 48.285027
  C 1.281028 -1.121381 0.833646
  C 2.521127 -0.360878 0.327450
  C 3.147423 0.756330 1.197067
  C 2.291190 1.233257 2.365546
  C 3.028424 2.323853 3.137151
  C 3.367725 -1.063065 -0.491330
  C 4.263143 -1.840492 -1.059309
  C 4.880001 -1.844562 -2.289004
  C 4.633956 -0.838734 -3.340519
  C 3.591409 0.206964 -2.982999
  H 3.463790 0.907315 -3.804771
  H 5.598326 -2.618710 -2.505102
  H 0.734205 -0.364723 1.372496
  H 1.553339 -1.963867 1.459198
  H 0.674535 -1.486882 0.011541
  H 3.363267 1.610172 0.550610
  H 4.103521 0.402659 1.591005
  H 2.081708 0.408211 3.046644
  H 1.346099 1.647519 2.009519
  H 3.968484 1.949427 3.535694
  H 2.422861 2.672605 3.970403
  H 3.244147 3.174866 2.497330
  H 1.822211 0.198969 -0.335805
  H 4.519069 -2.665402 -0.385619
  H 4.343430 -1.362136 -4.259768
  H 5.592135 -0.354806 -3.576938
  H 3.903989 0.769992 -2.106096
  H 2.632905 -0.269167 -2.795632
 28
 51.286447
  C 1.195117 -0.946610 0.786626
  C 2.436904 -0.218401 0.261565
  C 3.159324 0.814686 1.184168
  C 2.341695 1.299513 2.377034
  C 3.160171 2.293212 3.197166
  C 3.272100 -0.937563 -0.557737
  C 4.177708 -1.770447 -1.021678
  C 4.851033 -1.840552 -2.223035
  C 4.644764 -0.855905 -3.305508
  C 3.609690 0.203485 -2.976448
  H 3.498383 0.900342 -3.803442
  H 5.563805 -2.630789 -2.385413
  H 0.693337 -0.080860 1.196761
  H 1.427913 -1.738729 1.484719
  H 0.598986 -1.341529 -0.028964
  H 3.435178 1.676321 0.574704
  H 4.086772 0.374354 1.556339
  H 2.067648 0.461515 3.017944
  H 1.430505 1.801714 2.045964
  H 4.068954 1.829848 3.574228
  H 2.582821 2.646575 4.047899
  H 3.440400 3.155626 2.596732
  H 1.721780 0.458245 -0.250269
  H 4.369823 -2.565649 -0.295449
  H 4.362684 -1.393743 -4.218456
  H 5.610507 -0.387482 -3.533127
  H 3.917622 0.771361 -2.099944
  H 2.642176 -0.260699 -2.797635
 28
 37.522473
  C 1.337663 -0.980635 0.790658
  C 2.440133 -0.054669 0.218958
  C 3.202294 0.786234 1.278687
  C 2.291195 1.414330 2.329116
  C 3.107430 2.282474 3.282189
  C 3.304799 -0.788372 -0.608927
  C 4.160928 -1.680878 -1.050989
  C 4.793319 -1.853588 -2.263370
  C 4.582406 -0.891882 -3.365149
  C 3.543280 0.159866 -3.033796
  H 3.446635 0.881965 -3.840743
  H 5.476584 -2.671641 -2.407904
  H 0.559839 -0.375064 1.241015
  H 1.761733 -1.639852 1.541736
  H 0.896825 -1.583147 0.002494
  H 3.736319 1.586513 0.764085
  H 3.944127 0.159839 1.775344
  H 1.785741 0.643156 2.909465
  H 1.534118 2.035388 1.846744
  H 3.859537 1.689581 3.797918
  H 2.460542 2.733402 4.030634
  H 3.612507 3.082589 2.745278
  H 1.905862 0.652830 -0.431688
  H 4.372480 -2.404637 -0.256211
  H 4.294728 -1.445088 -4.265747
  H 5.543998 -0.421645 -3.604775
  H 3.841808 0.705720 -2.136019
  H 2.570969 -0.304953 -2.884259
