 20
 0.000000
  C 1.006600 -0.071485 0.047722
  C 2.502916 -0.082175 0.026739
  C 3.219639 -0.594706 -0.979448
  C 4.657053 -0.605681 -1.000992
  C 5.378067 -1.120873 -2.012398
  C 6.816197 -1.130857 -2.031995
  C 7.534976 -1.642519 -3.036480
  C 9.024821 -1.662080 -3.074875
  H 0.643202 0.394424 0.962374
  H 0.611548 -1.086305 0.007997
  H 0.611551 0.493053 -0.796510
  H 3.002959 0.353247 0.881547
  H 2.709058 -1.028238 -1.830533
  H 5.161466 -0.170837 -0.147324
  H 4.874094 -1.555783 -2.866200
  H 7.322582 -0.696369 -1.179022
  H 7.036287 -2.078741 -3.892841
  H 9.458072 -1.208897 -2.185206
  H 9.384158 -1.116478 -3.948682
  H 9.384155 -2.689681 -3.147321
 20
 10.559727
  C 0.895575 -0.059102 0.072035
  C 2.522172 -0.075195 0.040437
  C 3.225524 -0.587697 -0.965692
  C 4.661779 -0.604314 -0.998311
  C 5.373961 -1.121813 -2.014245
  C 6.810754 -1.137539 -2.045112
  C 7.515826 -1.649241 -3.049676
  C 9.135166 -1.674983 -3.100204
  H 0.542168 0.407072 0.987207
  H 0.502933 -1.071656 0.032848
  H 0.502932 0.504537 -0.770047
  H 3.024754 0.358289 0.891441
  H 2.707807 -1.019290 -1.812970
  H 5.173897 -0.171435 -0.148500
  H 4.862218 -1.554742 -2.864158
  H 7.324614 -0.705027 -1.196019
  H 7.014696 -2.083480 -3.902148
  H 9.568089 -1.223169 -2.213221
  H 9.486807 -1.131228 -3.974318
  H 9.486803 -2.701747 -3.174324
 20
 34.281442
  C 0.787933 -0.048519 0.092807
  C 2.545242 -0.066194 0.058112
  C 3.230092 -0.579509 -0.949609
  C 4.668003 -0.603038 -0.995793
  C 5.368719 -1.122627 -2.015832
  C 6.806761 -1.145504 -2.060748
  C 7.492855 -1.658415 -3.067686
  C 9.241708 -1.686169 -3.122176
  H 0.452490 0.417478 1.007626
  H 0.415395 -1.061028 0.050507
  H 0.415394 0.512582 -0.751077
  H 3.035894 0.367324 0.909184
  H 2.704286 -1.009305 -1.793365
  H 5.189941 -0.172422 -0.150425
  H 4.847016 -1.553258 -2.861234
  H 7.329551 -0.714915 -1.215430
  H 7.003519 -2.092408 -3.919673
  H 9.652630 -1.233278 -2.233078
  H 9.575030 -1.142260 -3.993942
  H 9.575032 -2.711132 -3.194791
 20
 62.876554
  C 0.669778 -0.035584 0.118208
  C 2.557979 -0.052646 0.084707
  C 3.232959 -0.572048 -0.934967
  C 4.673124 -0.601439 -0.992666
  C 5.364380 -1.124100 -2.018735
  C 6.804726 -1.153041 -2.075550
  C 7.480115 -1.671967 -3.094294
  C 9.358580 -1.699428 -3.148184
  H 0.350650 0.433196 1.038487
  H 0.318027 -1.056834 0.072818
  H 0.318024 0.528149 -0.734560
  H 3.035458 0.384482 0.942856
  H 2.701017 -1.000237 -1.775566
  H 5.203436 -0.172869 -0.151315
  H 4.834160 -1.552676 -2.860102
  H 7.334300 -0.724249 -1.233759
  H 7.003379 -2.109435 -3.953110
  H 9.746043 -1.241663 -2.249513
  H 9.675119 -1.149764 -4.024364
  H 9.675104 -2.731319 -3.218740
 20
 90.313402
  C 0.575702 -0.034232 0.120825
  C 2.598514 -0.036797 0.115828
  C 3.246126 -0.559020 -0.909369
  C 4.683375 -0.598127 -0.986127
  C 5.356883 -1.126993 -2.024377
  C 6.794607 -1.166057 -2.101055
  C 7.442006 -1.688451 -3.126618
  C 9.447355 -1.701352 -3.151979
  H 0.296360 0.440599 1.052978
  H 0.292211 -1.078314 0.068299
  H 0.292227 0.537158 -0.754606
  H 3.025018 0.411376 0.995670
  H 2.706389 -0.984137 -1.743941
  H 5.227143 -0.173231 -0.151986
  H 4.812953 -1.551874 -2.858484
  H 7.333175 -0.740651 -1.265924
  H 7.014009 -2.136647 -4.006506
  H 9.756339 -1.230588 -2.227797
  H 9.717353 -1.137538 -4.038027
  H 9.717350 -2.749488 -3.216900
 20
 119.588894
  C 0.464159 -0.024047 0.140830
  C 2.619205 -0.027015 0.135033
  C 3.250839 -0.551285 -0.894189
  C 4.694335 -0.598315 -0.986507
  C 5.348502 -1.127063 -2.024529
  C 6.791478 -1.174092 -2.116852
  C 7.422125 -1.698236 -3.145851
  C 9.555571 -1.712054 -3.173020
  H 0.207683 0.448370 1.068247
  H 0.205314 -1.062521 0.087705
  H 0.205323 0.543565 -0.730422
  H 3.030452 0.420518 1.013617
  H 2.700800 -0.974494 -1.725011
  H 5.249780 -0.176521 -0.158457
  H 4.792971 -1.548797 -2.852451
  H 7.340651 -0.750673 -1.285623
  H 7.008713 -2.145355 -4.023621
  H 9.839489 -1.243220 -2.252629
  H 9.802886 -1.150825 -4.052066
  H 9.802916 -2.753116 -3.235920
 20
 146.318919
  C 0.346770 -0.013125 0.162276
  C 2.634796 -0.014628 0.159344
  C 3.253600 -0.540397 -0.872820
  C 4.697190 -0.593615 -0.977288
  C 5.346143 -1.130990 -2.032244
  C 6.790045 -1.184329 -2.136954
  C 7.408959 -1.711095 -3.171096
  C 9.669826 -1.723786 -3.196019
  H 0.108207 0.463376 1.097707
  H 0.109187 -1.061850 0.108001
  H 0.109196 0.559574 -0.717932
  H 3.033840 0.436449 1.044881
  H 2.697637 -0.961353 -1.699218
  H 5.260716 -0.173947 -0.153414
  H 4.782366 -1.550634 -2.856070
  H 7.345474 -0.763181 -1.310180
  H 7.007066 -2.161823 -4.055953
  H 9.931276 -1.249882 -2.265664
  H 9.899254 -1.156115 -4.082375
  H 9.899254 -2.774485 -3.257999
 20
 170.330909
  C 0.245552 -0.005315 0.177634
  C 2.667286 -0.007202 0.173920
  C 3.273363 -0.536978 -0.866116
  C 4.714838 -0.597940 -0.985800
  C 5.334007 -1.128150 -2.026690
  C 6.774364 -1.189182 -2.146505
  C 7.377262 -1.717560 -3.183807
  C 9.764756 -1.731147 -3.210464
  H 0.029914 0.471211 1.113116
  H 0.031933 -1.054019 0.122963
  H 0.031927 0.567058 -0.702807
  H 3.053466 0.445052 1.061763
  H 2.708376 -0.955961 -1.688632
  H 5.289658 -0.182195 -0.169631
  H 4.759035 -1.543826 -2.842720
  H 7.339108 -0.770301 -1.324178
  H 6.987440 -2.169124 -4.070310
  H 10.001958 -1.256966 -2.279565
  H 9.971852 -1.162806 -4.095526
  H 9.971852 -2.781237 -3.271145
 20
 189.972745
  C 0.126219 -0.004350 0.179510
  C 2.700309 0.008822 0.205383
  C 3.284612 -0.516287 -0.825487
  C 4.726445 -0.588754 -0.967750
  C 5.326961 -1.129249 -2.028822
  C 6.771965 -1.202208 -2.172050
  C 7.366916 -1.738676 -3.225243
  C 9.862435 -1.738348 -3.224626
  H -0.044899 0.474228 1.119018
  H -0.018251 -1.060921 0.122270
  H -0.018248 0.570571 -0.708802
  H 3.042024 0.466978 1.104814
  H 2.711246 -0.932628 -1.642822
  H 5.316161 -0.176443 -0.158325
  H 4.736809 -1.541437 -2.838024
  H 7.345654 -0.785298 -1.353603
  H 7.019514 -2.196519 -4.124070
  H 10.025867 -1.259489 -2.284537
  H 10.021006 -1.163593 -4.111192
  H 10.021013 -2.793426 -3.281006
 20
 206.705923
  C -0.032641 -0.000402 0.187244
  C 2.745059 0.025021 0.237191
  C 3.325012 -0.504221 -0.801788
  C 4.768754 -0.586774 -0.963850
  C 5.349990 -1.131629 -2.033482
  C 6.793027 -1.214313 -2.195815
  C 7.371381 -1.748553 -3.244633
  C 9.923234 -1.746190 -3.240038
  H -0.159506 0.480870 1.132039
  H -0.113155 -1.063601 0.129577
  H -0.113144 0.578065 -0.706674
  H 3.050245 0.488032 1.146151
  H 2.744699 -0.919086 -1.616235
  H 5.369452 -0.178292 -0.161937
  H 4.748592 -1.539951 -2.835097
  H 7.375357 -0.800109 -1.382676
  H 7.049783 -2.209535 -4.149621
  H 10.038579 -1.264209 -2.293816
  H 10.040073 -1.167228 -4.130254
  H 10.040091 -2.806706 -3.295157
 20
 220.716781
  C -0.170579 0.009331 0.206366
  C 2.771581 0.033401 0.253637
  C 3.342218 -0.495860 -0.785388
  C 4.785744 -0.584509 -0.959421
  C 5.353980 -1.130653 -2.031582
  C 6.797696 -1.219495 -2.205999
  C 7.367939 -1.756739 -3.260707
  C 10.015762 -1.760054 -3.267231
  H -0.277418 0.491062 1.152070
  H -0.232844 -1.053937 0.149236
  H -0.232839 0.588282 -0.687296
  H 3.071159 0.497313 1.164373
  H 2.755461 -0.908905 -1.596256
  H 5.394001 -0.178552 -0.162461
  H 4.744809 -1.536414 -2.828163
  H 7.387205 -0.807198 -1.396602
  H 7.048167 -2.218298 -4.166827
  H 10.122201 -1.278263 -2.321379
  H 10.117066 -1.180900 -4.158022
  H 10.117074 -2.821118 -3.322526
 20
 136.817270
  C -0.982666 0.433228 -0.150099
  C 3.227542 -0.421566 0.599214
  C 3.845584 -0.936183 -0.430556
  C 5.267204 -0.817984 -0.703671
  C 5.849685 -1.364888 -1.776136
  C 7.253211 -1.216543 -2.097735
  C 7.822050 -1.720335 -3.189040
  C 9.257814 -1.556325 -3.552875
  H -1.136849 0.913170 0.790577
  H -1.254441 -0.601984 -0.268482
  H -0.783781 1.022543 -1.009491
  H 3.498463 0.075560 1.507554
  H 3.294979 -1.455046 -1.196995
  H 5.844490 -0.266470 0.005131
  H 5.255019 -1.914014 -2.485551
  H 7.854788 -0.649847 -1.393935
  H 7.222007 -2.292525 -3.890118
  H 9.800525 -0.997778 -2.799084
  H 9.349308 -1.023074 -4.508942
  H 9.742658 -2.525588 -3.682088
 20
 134.304873
  C -1.210692 0.453025 -0.169516
  C 3.259450 -0.393480 0.607249
  C 3.858189 -0.873726 -0.442893
  C 5.285189 -0.777262 -0.729257
  C 5.847689 -1.295559 -1.830060
  C 7.251149 -1.195557 -2.129746
  C 7.809601 -1.693665 -3.234932
  C 9.255901 -1.594093 -3.570508
  H -1.316477 0.903248 0.792113
  H -1.403623 -0.588886 -0.294298
  H -0.958506 1.054197 -1.014758
  H 3.499890 0.095677 1.521639
  H 3.281280 -1.374331 -1.214984
  H 5.888562 -0.263329 0.005837
  H 5.233535 -1.808182 -2.559778
  H 7.865406 -0.684483 -1.399564
  H 7.194764 -2.211858 -3.959849
  H 9.808048 -1.086302 -2.782905
  H 9.388268 -1.043816 -4.502722
  H 9.679912 -2.588307 -3.714299
