 28
 0.000000
  C 0.956902 0.144206 0.409988
  C 2.430399 0.139627 0.398274
  C 3.224615 0.605133 1.556702
  C 2.462490 1.097938 2.783430
  C 3.429381 1.537800 3.878495
  C 3.040396 -0.326851 -0.762989
  C 4.423154 -0.412183 -0.976414
  C 5.096133 -0.858207 -2.088416
  C 4.628502 -1.378848 -3.385855
  C 3.146116 -1.506417 -3.703620
  H 3.015612 -1.906921 -4.701840
  H 6.176373 -0.844505 -2.054924
  H 0.530249 0.515608 1.334237
  H 0.582690 -0.866636 0.241259
  H 0.582432 0.757103 -0.411269
  H 3.882927 1.412929 1.216947
  H 3.883009 -0.213122 1.870241
  H 1.826035 0.303815 3.178201
  H 1.826069 1.944493 2.519141
  H 4.065059 0.712972 4.192831
  H 2.878616 1.887195 4.748339
  H 4.065105 2.350846 3.534883
  H 2.379145 -0.643220 -1.550221
  H 5.039657 -0.080224 -0.150144
  H 5.098157 -2.363898 -3.505744
  H 5.098151 -0.749930 -4.153445
  H 2.660081 -0.533798 -3.664520
  H 2.660177 -2.182350 -3.003113
 28
 1.715855
  C 0.956245 0.109611 0.417847
  C 2.426670 0.134453 0.414442
  C 3.213869 0.625140 1.564477
  C 2.448581 1.109006 2.791726
  C 3.419151 1.567278 3.876390
  C 3.066583 -0.323597 -0.728627
  C 4.449508 -0.439183 -0.931303
  C 5.071283 -0.889592 -2.077087
  C 4.595936 -1.378439 -3.379228
  C 3.117025 -1.467268 -3.721770
  H 3.013638 -1.851917 -4.733569
  H 6.154593 -0.895400 -2.028329
  H 0.522100 0.481438 1.337172
  H 0.603069 -0.906426 0.233058
  H 0.578884 0.696891 -0.421574
  H 3.872062 1.429638 1.216659
  H 3.894349 -0.176798 1.875855
  H 1.833956 0.301721 3.192911
  H 1.800931 1.946461 2.527640
  H 4.070376 0.752075 4.184479
  H 2.874827 1.908211 4.753397
  H 4.040764 2.386970 3.523483
  H 2.552136 -0.661705 -1.608040
  H 5.136290 -0.159079 -0.142904
  H 5.056333 -2.366572 -3.514294
  H 5.095328 -0.747086 -4.127518
  H 2.638485 -0.491512 -3.688456
  H 2.593944 -2.152789 -3.058720
 28
 6.787498
  C 0.946662 -0.004614 0.456005
  C 2.417636 0.074019 0.441288
  C 3.199072 0.614210 1.575783
  C 2.432493 1.127600 2.788519
  C 3.414012 1.674286 3.824619
  C 3.068341 -0.358851 -0.697062
  C 4.439962 -0.596088 -0.879031
  C 5.066105 -0.983390 -2.043019
  C 4.591976 -1.322657 -3.392270
  C 3.116710 -1.324418 -3.765315
  H 3.016840 -1.658331 -4.790894
  H 6.136292 -1.071677 -1.972605
  H 0.523243 0.351577 1.381431
  H 0.623126 -1.029331 0.290881
  H 0.540623 0.583645 -0.365705
  H 3.800341 1.448940 1.193595
  H 3.954384 -0.124317 1.873012
  H 1.872368 0.312254 3.248259
  H 1.762195 1.934523 2.491593
  H 4.098516 0.894045 4.148635
  H 2.884593 2.032832 4.706062
  H 4.007667 2.485660 3.412272
  H 2.671364 -0.643357 -1.646052
  H 5.125217 -0.471051 -0.041396
  H 4.991261 -2.334476 -3.562992
  H 5.182398 -0.728080 -4.102621
  H 2.677012 -0.329851 -3.697587
  H 2.546693 -2.019341 -3.146046
 28
 14.634731
  C 0.956971 0.023927 0.449905
  C 2.417335 0.090837 0.427968
  C 3.210652 0.620675 1.562724
  C 2.448055 1.116623 2.781078
  C 3.407775 1.645364 3.843969
  C 3.060900 -0.363987 -0.698551
  C 4.446233 -0.547490 -0.900552
  C 5.073921 -0.955750 -2.056709
  C 4.591268 -1.349658 -3.392182
  C 3.105200 -1.360504 -3.727998
  H 2.992496 -1.676182 -4.761059
  H 6.158278 -1.008124 -1.993312
  H 0.525307 0.376502 1.381082
  H 0.625392 -1.006194 0.258639
  H 0.558111 0.621237 -0.379437
  H 3.836937 1.434563 1.188888
  H 3.905672 -0.177991 1.870621
  H 1.826294 0.328034 3.216220
  H 1.784120 1.933697 2.488237
  H 4.080420 0.860071 4.188522
  H 2.853405 2.016433 4.704227
  H 4.005685 2.464269 3.455374
  H 2.782181 -0.736078 -1.652753
  H 5.153204 -0.362145 -0.088544
  H 4.996870 -2.349556 -3.591160
  H 5.094289 -0.675238 -4.100554
  H 2.665320 -0.373510 -3.654582
  H 2.548993 -2.067330 -3.119374
 28
 25.700643
  C 0.916237 -0.031199 0.498686
  C 2.385261 0.080303 0.434233
  C 3.191715 0.676901 1.527715
  C 2.446554 1.156902 2.764656
  C 3.422617 1.677709 3.811099
  C 3.024900 -0.394692 -0.675713
  C 4.423007 -0.649361 -0.887848
  C 5.073241 -1.030602 -2.034759
  C 4.600444 -1.360906 -3.388096
  C 3.124977 -1.289523 -3.752799
  H 3.023496 -1.513256 -4.813966
  H 6.149522 -1.094149 -1.947451
  H 0.506605 0.349609 1.423262
  H 0.610190 -1.070637 0.367580
  H 0.482712 0.515753 -0.334879
  H 3.798132 1.492309 1.126068
  H 3.906762 -0.099518 1.827296
  H 1.883178 0.328667 3.199316
  H 1.738768 1.945102 2.508144
  H 4.119565 0.898453 4.113230
  H 2.886665 2.004095 4.697346
  H 3.991206 2.518481 3.429470
  H 2.887549 -0.815400 -1.639875
  H 5.122670 -0.495821 -0.059980
  H 5.019604 -2.333068 -3.665383
  H 5.135191 -0.649784 -4.037237
  H 2.720683 -0.289518 -3.610231
  H 2.524560 -2.017486 -3.213497
 28
 25.477341
  C 0.942740 -0.204424 0.537607
  C 2.412387 -0.068040 0.472300
  C 3.207174 0.616354 1.533186
  C 2.436320 1.199359 2.714129
  C 3.396117 1.840119 3.709952
  C 3.080093 -0.568210 -0.599413
  C 4.446533 -0.929564 -0.836818
  C 5.086997 -1.173938 -2.022971
  C 4.601942 -1.194719 -3.420691
  C 3.117857 -1.037598 -3.729469
  H 2.975335 -1.141174 -4.803468
  H 6.152833 -1.338192 -1.946276
  H 0.527878 0.177008 1.463021
  H 0.664102 -1.252992 0.442644
  H 0.496585 0.327388 -0.303623
  H 3.766292 1.429408 1.060919
  H 3.941420 -0.108365 1.893796
  H 1.891036 0.402608 3.221178
  H 1.720506 1.946647 2.367750
  H 4.103563 1.107140 4.090613
  H 2.845500 2.244973 4.554978
  H 3.953536 2.654133 3.251022
  H 2.863877 -1.032828 -1.535811
  H 5.121729 -0.922423 0.028907
  H 4.938231 -2.154369 -3.827273
  H 5.174651 -0.429615 -3.962423
  H 2.744939 -0.055067 -3.443738
  H 2.523954 -1.829943 -3.274015
 28
 32.996416
  C 0.918893 -0.380349 0.648243
  C 2.375401 -0.162840 0.483527
  C 3.178741 0.625231 1.451821
  C 2.438141 1.211099 2.650318
  C 3.418755 1.923069 3.581090
  C 3.018250 -0.694142 -0.589509
  C 4.381000 -1.081561 -0.802688
  C 5.054684 -1.239648 -1.981217
  C 4.628118 -1.141650 -3.388677
  C 3.176529 -0.809194 -3.722568
  H 3.055613 -0.788589 -4.807200
  H 6.105429 -1.477061 -1.895714
  H 0.537214 0.086933 1.544621
  H 0.676361 -1.440658 0.686648
  H 0.397364 0.056148 -0.208939
  H 3.696296 1.449020 0.952268
  H 3.952530 -0.055863 1.838118
  H 1.948273 0.418460 3.218344
  H 1.687650 1.936877 2.326155
  H 4.171880 1.231651 3.960203
  H 2.890895 2.343397 4.431905
  H 3.927556 2.732054 3.065813
  H 2.882964 -1.216973 -1.517133
  H 5.056646 -1.111986 0.058366
  H 4.907897 -2.083986 -3.870234
  H 5.301026 -0.395491 -3.834040
  H 2.896110 0.167968 -3.327696
  H 2.473798 -1.551991 -3.336728
 28
 39.543218
  C 0.957009 -0.464304 0.647814
  C 2.408414 -0.230833 0.505661
  C 3.183228 0.597736 1.482693
  C 2.410035 1.231994 2.631440
  C 3.371878 2.028840 3.523318
  C 3.079157 -0.781580 -0.523218
  C 4.421974 -1.205867 -0.862321
  C 5.085032 -1.323495 -2.041796
  C 4.616448 -1.098265 -3.418912
  C 3.179774 -0.653322 -3.625783
  H 2.996835 -0.515720 -4.686620
  H 6.128451 -1.609038 -1.966232
  H 0.567164 0.054449 1.509196
  H 0.744263 -1.526998 0.754467
  H 0.442188 -0.097212 -0.239586
  H 3.713621 1.395807 0.953129
  H 3.962384 -0.062610 1.884165
  H 1.916166 0.460307 3.231400
  H 1.640437 1.906112 2.243124
  H 4.148953 1.384745 3.936693
  H 2.828333 2.477400 4.355663
  H 3.852692 2.830620 2.961336
  H 2.925874 -1.347478 -1.425825
  H 5.067081 -1.361308 0.019901
  H 4.798992 -1.998048 -4.012497
  H 5.280255 -0.342962 -3.849430
  H 2.988298 0.289324 -3.128761
  H 2.459493 -1.387731 -3.271727
 28
 44.100738
  C 1.030757 -0.501757 0.640321
  C 2.480312 -0.231928 0.495829
  C 3.229299 0.634204 1.474232
  C 2.404089 1.250421 2.608573
  C 3.292955 2.100515 3.513860
  C 3.163899 -0.760427 -0.501812
  C 4.439212 -1.344719 -0.892335
  C 5.073711 -1.401280 -2.088102
  C 4.577023 -1.086013 -3.435692
  C 3.170618 -0.532462 -3.554885
  H 2.948287 -0.347268 -4.596641
  H 6.123411 -1.752000 -2.076277
  H 0.602795 -0.015660 1.508462
  H 0.856478 -1.571926 0.751153
  H 0.501997 -0.179011 -0.253356
  H 3.730218 1.446352 0.933689
  H 4.023519 0.017368 1.913350
  H 1.943738 0.447996 3.189987
  H 1.607251 1.868454 2.193383
  H 4.073928 1.495265 3.974305
  H 2.698491 2.533374 4.318129
  H 3.751953 2.918092 2.956015
  H 2.968224 -1.430261 -1.374252
  H 5.043024 -1.593486 -0.001960
  H 4.669785 -1.979917 -4.056820
  H 5.285776 -0.372488 -3.878595
  H 3.097107 0.417643 -3.031755
  H 2.427431 -1.234739 -3.179797
 28
 44.537233
  C 1.065889 -0.613952 0.615602
  C 2.535456 -0.391157 0.540413
  C 3.255862 0.577724 1.444460
  C 2.395934 1.290982 2.488190
  C 3.265275 2.211995 3.341314
  C 3.248714 -0.969875 -0.402006
  C 4.454878 -1.605621 -0.871734
  C 5.066747 -1.475074 -2.092098
  C 4.543579 -0.919132 -3.347221
  C 3.145990 -0.330161 -3.328619
  H 2.898732 0.034801 -4.324421
  H 6.098321 -1.834619 -2.149463
  H 0.615485 -0.030740 1.408842
  H 0.850372 -1.663350 0.790529
  H 0.597108 -0.339060 -0.326596
  H 3.753381 1.331964 0.828536
  H 4.048902 0.022493 1.955803
  H 1.913536 0.565580 3.144458
  H 1.627681 1.893730 2.003353
  H 4.045197 1.649137 3.846539
  H 2.660395 2.704433 4.097262
  H 3.734219 2.977489 2.731751
  H 3.009565 -1.615214 -1.308400
  H 5.076633 -2.070014 -0.088904
  H 4.617857 -1.700907 -4.110962
  H 5.255142 -0.150367 -3.680252
  H 3.081369 0.505109 -2.640958
  H 2.398369 -1.073641 -3.067749
 28
 45.387790
  C 1.131879 -0.688871 0.640403
  C 2.592731 -0.409472 0.532971
  C 3.273890 0.601493 1.426444
  C 2.376686 1.329370 2.434567
  C 3.211881 2.292418 3.277479
  C 3.322586 -1.000097 -0.379288
  C 4.429911 -1.721623 -0.918885
  C 5.045698 -1.557552 -2.138763
  C 4.536598 -0.863036 -3.332241
  C 3.177355 -0.196405 -3.230964
  H 2.933821 0.267467 -4.184171
  H 6.016296 -2.014674 -2.252479
  H 0.667159 -0.124512 1.452830
  H 0.970185 -1.746787 0.820316
  H 0.628339 -0.423639 -0.287488
  H 3.761428 1.347473 0.796099
  H 4.064131 0.081591 1.977942
  H 1.894568 0.613050 3.103258
  H 1.606045 1.902027 1.915836
  H 3.987130 1.760719 3.819851
  H 2.582069 2.802457 4.003202
  H 3.682506 3.041319 2.655949
  H 3.011601 -1.712189 -1.247754
  H 4.992121 -2.313959 -0.192989
  H 4.540299 -1.580797 -4.167110
  H 5.286727 -0.115608 -3.616411
  H 3.176099 0.581189 -2.466186
  H 2.393803 -0.908963 -3.017544
 28
 50.030569
  C 1.156529 -0.656310 0.563611
  C 2.644591 -0.438901 0.553881
  C 3.308888 0.589205 1.463414
  C 2.377256 1.354483 2.389596
  C 3.181993 2.338259 3.234051
  C 3.414592 -1.071580 -0.273033
  C 4.429761 -1.794985 -0.930464
  C 5.043589 -1.549379 -2.172888
  C 4.485394 -0.792780 -3.307921
  C 3.121307 -0.147231 -3.105569
  H 2.834273 0.378866 -4.012411
  H 6.013980 -1.996149 -2.336975
  H 0.668634 -0.043221 1.308209
  H 0.934079 -1.698580 0.775495
  H 0.736756 -0.412190 -0.410128
  H 3.847473 1.307144 0.837203
  H 4.056468 0.066297 2.072208
  H 1.856138 0.668598 3.057812
  H 1.641050 1.913060 1.813081
  H 3.918170 1.816635 3.840615
  H 2.520678 2.890710 3.903471
  H 3.702076 3.055132 2.604611
  H 3.240022 -2.006084 -1.291735
  H 4.983041 -2.458610 -0.266468
  H 4.454008 -1.459271 -4.180442
  H 5.217572 -0.020721 -3.582804
  H 3.144397 0.572536 -2.295091
  H 2.346464 -0.890902 -2.907624
 28
 49.657394
  C 1.150218 -0.658041 0.547860
  C 2.643771 -0.474850 0.553575
  C 3.318133 0.566533 1.444279
  C 2.385355 1.385379 2.331668
  C 3.200187 2.377702 3.158133
  C 3.417068 -1.146302 -0.230527
  C 4.375406 -1.906239 -0.945564
  C 5.018137 -1.542279 -2.177537
  C 4.476038 -0.690975 -3.249814
  C 3.105555 -0.060274 -3.026242
  H 2.838646 0.537933 -3.894333
  H 5.988134 -1.982603 -2.369369
  H 0.665902 -0.014126 1.270661
  H 0.901213 -1.690511 0.784521
  H 0.751931 -0.428990 -0.439148
  H 3.881990 1.249571 0.805469
  H 4.039853 0.047581 2.080056
  H 1.836628 0.733435 3.013584
  H 1.671051 1.943208 1.723855
  H 3.914092 1.858963 3.794633
  H 2.543168 2.965352 3.795079
  H 3.749010 3.062081 2.514403
  H 3.277047 -2.214372 -1.267362
  H 4.932820 -2.613276 -0.331056
  H 4.461928 -1.285152 -4.176130
  H 5.214786 0.099526 -3.449609
  H 3.109786 0.594283 -2.157959
  H 2.330660 -0.816350 -2.903788
