 19
 0.000000
  H 1.425983 0.165357 0.464820
  C 2.503849 0.141225 0.403805
  C 3.249758 0.611077 1.570355
  H 2.590297 0.931242 2.366750
  C 3.051057 -0.329648 -0.767638
  C 4.436476 -0.420169 -0.993491
  C 5.087188 -0.871215 -2.118989
  C 4.610920 -1.383675 -3.398291
  C 3.131101 -1.507628 -3.708511
  H 3.009943 -1.908542 -4.709582
  H 6.167713 -0.848074 -2.060906
  H 3.912492 1.436827 1.298971
  H 3.913456 -0.171813 1.946358
  H 2.367762 -0.640897 -1.542196
  H 5.076634 -0.095168 -0.182542
  H 5.097674 -2.361597 -3.537396
  H 5.098209 -0.772737 -4.174237
  H 2.636725 -0.538979 -3.679611
  H 2.636406 -2.188377 -3.019029
 19
 9.822973
  H 1.407358 0.181169 0.504458
  C 2.486787 0.158981 0.448179
  C 3.226778 0.630779 1.619332
  H 2.561364 0.950047 2.413454
  C 3.041145 -0.312380 -0.724400
  C 4.414058 -0.398845 -0.940215
  C 5.132352 -0.903667 -2.199877
  C 4.633300 -1.408788 -3.460901
  C 3.145202 -1.519236 -3.737596
  H 2.996025 -1.919473 -4.737028
  H 6.210974 -0.880469 -2.141589
  H 3.888093 1.458043 1.351583
  H 3.889109 -0.150577 1.999064
  H 2.363021 -0.624943 -1.502142
  H 5.062113 -0.078108 -0.139928
  H 5.110338 -2.390627 -3.609073
  H 5.110913 -0.801343 -4.246074
  H 2.661445 -0.546556 -3.696227
  H 2.661019 -2.194252 -3.036354
 19
 29.966250
  H 1.388625 0.181550 0.505924
  C 2.474176 0.166524 0.467301
  C 3.194768 0.645069 1.654288
  H 2.508126 0.960861 2.439469
  C 3.055712 -0.305948 -0.707563
  C 4.410906 -0.377920 -0.887168
  C 5.193346 -0.937073 -2.282654
  C 4.642959 -1.429516 -3.512658
  C 3.147103 -1.517660 -3.733979
  H 2.951882 -1.916344 -4.730333
  H 6.266750 -0.900446 -2.190808
  H 3.849705 1.479786 1.399420
  H 3.850859 -0.132359 2.048797
  H 2.397232 -0.621030 -1.491302
  H 5.093288 -0.072357 -0.124530
  H 5.103099 -2.416002 -3.682292
  H 5.103545 -0.833171 -4.316167
  H 2.683086 -0.537882 -3.673431
  H 2.682571 -2.184888 -3.014388
 19
 53.024823
  H 1.375915 0.197016 0.544889
  C 2.455402 0.182818 0.508207
  C 3.173318 0.659447 1.689588
  H 2.489779 0.973851 2.470999
  C 3.033833 -0.284884 -0.654325
  C 4.389119 -0.353595 -0.825834
  C 5.234316 -0.967330 -2.357729
  C 4.662891 -1.452493 -3.570035
  C 3.159696 -1.529584 -3.764011
  H 2.942954 -1.925184 -4.753241
  H 6.304159 -0.925752 -2.253528
  H 3.827714 1.494547 1.433649
  H 3.829090 -0.118745 2.083905
  H 2.371553 -0.602689 -1.444581
  H 5.097650 -0.053428 -0.076674
  H 5.115314 -2.443823 -3.747505
  H 5.115795 -0.857715 -4.382390
  H 2.704717 -0.545296 -3.694080
  H 2.704063 -2.193868 -3.034752
 19
 75.528391
  H 1.347665 0.212381 0.583268
  C 2.431190 0.202239 0.556640
  C 3.141048 0.684687 1.752102
  H 2.447764 0.997315 2.528965
  C 3.031206 -0.270987 -0.619372
  C 4.380255 -0.333773 -0.775954
  C 5.285100 -1.002707 -2.445618
  C 4.680932 -1.481005 -3.641216
  C 3.172641 -1.541793 -3.794560
  H 2.922908 -1.934870 -4.777953
  H 6.352994 -0.955139 -2.326381
  H 3.794269 1.523214 1.502312
  H 3.795713 -0.091565 2.153377
  H 2.379246 -0.589993 -1.412509
  H 5.110478 -0.043929 -0.052440
  H 5.119860 -2.477517 -3.830199
  H 5.120369 -0.890122 -4.465300
  H 2.732507 -0.552633 -3.710730
  H 2.731857 -2.200253 -3.052076
 19
 95.001605
  H 1.335033 0.202555 0.559476
  C 2.413686 0.203215 0.559386
  C 3.096458 0.690440 1.765788
  H 2.388354 0.996303 2.525726
  C 3.045322 -0.263795 -0.600754
  C 4.389436 -0.313539 -0.725004
  C 5.344202 -1.039502 -2.536756
  C 4.695735 -1.500295 -3.688991
  C 3.176681 -1.527471 -3.759297
  H 2.862501 -1.912366 -4.723278
  H 6.402252 -0.982198 -2.393145
  H 3.747652 1.534591 1.527699
  H 3.749404 -0.081391 2.179647
  H 2.405780 -0.590806 -1.413619
  H 5.166918 -0.040629 -0.043964
  H 5.105896 -2.508476 -3.893210
  H 5.106612 -0.910919 -4.531719
  H 2.767202 -0.527547 -3.647536
  H 2.766197 -2.174791 -2.989518
 19
 112.214645
  H 1.313539 0.218286 0.598991
  C 2.396462 0.223245 0.609420
  C 3.069625 0.713633 1.823304
  H 2.351351 1.018409 2.580591
  C 3.041953 -0.242075 -0.546337
  C 4.372340 -0.286772 -0.658069
  C 5.386041 -1.068003 -2.607673
  C 4.708265 -1.530454 -3.764266
  C 3.188087 -1.546944 -3.808081
  H 2.851377 -1.930428 -4.768883
  H 6.447618 -1.006112 -2.452470
  H 3.719249 1.559721 1.590453
  H 3.721108 -0.055779 2.242331
  H 2.416350 -0.567859 -1.356069
  H 5.165188 -0.023230 -0.000517
  H 5.107237 -2.541561 -3.976816
  H 5.108063 -0.944663 -4.614917
  H 2.790190 -0.544399 -3.687513
  H 2.789074 -2.190169 -3.030252
 19
 126.472964
  H 1.291523 0.234676 0.640351
  C 2.370914 0.242195 0.656864
  C 3.036865 0.731332 1.866922
  H 2.316569 1.034230 2.619467
  C 3.025614 -0.222642 -0.497322
  C 4.364783 -0.265858 -0.605531
  C 5.420355 -1.105264 -2.700440
  C 4.728071 -1.554702 -3.824806
  C 3.209098 -1.555653 -3.830179
  H 2.844634 -1.934778 -4.780492
  H 6.478348 -1.043222 -2.544662
  H 3.685423 1.578310 1.635858
  H 3.687474 -0.037221 2.288039
  H 2.397115 -0.551694 -1.314749
  H 5.186547 -0.012663 0.025977
  H 5.111946 -2.567926 -4.045602
  H 5.112987 -0.973007 -4.682804
  H 2.825829 -0.548065 -3.698421
  H 2.824538 -2.194883 -3.040936
 19
 137.762661
  H 1.273879 0.248640 0.675224
  C 2.354596 0.262235 0.706579
  C 3.009765 0.757536 1.932422
  H 2.278653 1.057237 2.677594
  C 3.027247 -0.199634 -0.440689
  C 4.346140 -0.237420 -0.535538
  C 5.458453 -1.132750 -2.768923
  C 4.742010 -1.586348 -3.903549
  C 3.217030 -1.578602 -3.887509
  H 2.834948 -1.955410 -4.832014
  H 6.519178 -1.068546 -2.607530
  H 3.657515 1.608860 1.709338
  H 3.659658 -0.008713 2.362015
  H 2.411627 -0.529615 -1.260357
  H 5.181777 0.006608 0.072999
  H 5.117883 -2.605111 -4.131797
  H 5.119119 -1.005955 -4.770861
  H 2.842823 -0.569001 -3.748976
  H 2.841324 -2.214537 -3.091833
 19
 146.008419
  H 1.248714 0.272475 0.734799
  C 2.327085 0.286580 0.767207
  C 2.976335 0.776138 1.978860
  H 2.245651 1.075179 2.722769
  C 3.003324 -0.174842 -0.379182
  C 4.339515 -0.216001 -0.482790
  C 5.477545 -1.172317 -2.867618
  C 4.764215 -1.612287 -3.968066
  C 3.246427 -1.592004 -3.921033
  H 2.842518 -1.965612 -4.857551
  H 6.542191 -1.116657 -2.727361
  H 3.622783 1.625667 1.755015
  H 3.625065 0.010704 2.406481
  H 2.381230 -0.506323 -1.202404
  H 5.197811 0.019352 0.103982
  H 5.128801 -2.628415 -4.202084
  H 5.130201 -1.037952 -4.837791
  H 2.884066 -0.579177 -3.773652
  H 2.882414 -2.223993 -3.116754
 19
 150.035576
  H 1.232563 0.285437 0.767798
  C 2.309913 0.313447 0.834745
  C 2.921598 0.810931 2.064688
  H 2.170486 1.103212 2.791663
  C 3.027909 -0.139043 -0.288841
  C 4.347155 -0.179489 -0.391226
  C 5.485306 -1.200303 -2.936928
  C 4.781059 -1.650690 -4.063892
  C 3.259386 -1.622293 -3.997111
  H 2.835672 -1.992761 -4.926505
  H 6.565708 -1.178709 -2.881328
  H 3.569215 1.665153 1.856186
  H 3.571814 0.053145 2.506827
  H 2.427427 -0.476521 -1.126547
  H 5.231752 0.041253 0.159490
  H 5.146651 -2.664379 -4.308694
  H 5.148320 -1.085275 -4.939468
  H 2.905985 -0.607527 -3.839485
  H 2.904075 -2.248943 -3.184394
 19
 152.926180
  H 1.213138 0.308125 0.824248
  C 2.290098 0.339779 0.900379
  C 2.888704 0.836467 2.128001
  H 2.132826 1.126943 2.850441
  C 3.020129 -0.110751 -0.218066
  C 4.340323 -0.151512 -0.321184
  C 5.504404 -1.232290 -3.016853
  C 4.798606 -1.683652 -4.146306
  C 3.277759 -1.650396 -4.067314
  H 2.843574 -2.019169 -4.992466
  H 6.588508 -1.225473 -2.997999
  H 3.536833 1.690697 1.922940
  H 3.539504 0.081144 2.572625
  H 2.424614 -0.450491 -1.061494
  H 5.235015 0.062324 0.212652
  H 5.160866 -2.697317 -4.394251
  H 5.162571 -1.120391 -5.024124
  H 2.929801 -0.634857 -3.905616
  H 2.927917 -2.274840 -3.251116
 19
 154.942344
  H 1.193938 0.329874 0.877942
  C 2.270470 0.364493 0.961626
  C 2.860443 0.861961 2.191798
  H 2.100824 1.151033 2.911407
  C 3.008698 -0.084075 -0.152394
  C 4.328417 -0.124803 -0.255440
  C 5.523746 -1.264951 -3.098605
  C 4.815699 -1.717387 -4.230424
  C 3.296014 -1.680770 -4.142922
  H 2.854472 -2.048554 -5.065276
  H 6.610423 -1.269297 -3.107334
  H 3.509991 1.716590 1.989856
  H 3.512851 0.108343 2.638491
  H 2.417869 -0.424884 -0.999048
  H 5.233033 0.084060 0.266620
  H 5.174623 -2.730800 -4.479762
  H 5.176329 -1.155438 -5.109199
  H 2.951849 -0.664045 -3.978381
  H 2.950014 -2.303979 -3.323683
 19
 156.333888
  H 1.176201 0.351552 0.932739
  C 2.252447 0.388739 1.022335
  C 2.834437 0.886423 2.252595
  H 2.072247 1.174077 2.969523
  C 2.997749 -0.058695 -0.089162
  C 4.316351 -0.099071 -0.191851
  C 5.544115 -1.298394 -3.181811
  C 4.832801 -1.751888 -4.316270
  C 3.313010 -1.712513 -4.222400
  H 2.865939 -2.079340 -5.142447
  H 6.631834 -1.311884 -3.213016
  H 3.484806 1.740892 2.053063
  H 3.488331 0.134961 2.700558
  H 2.410395 -0.400858 -0.938973
  H 5.227479 0.104832 0.318088
  H 5.188754 -2.766033 -4.566421
  H 5.190649 -1.190117 -5.196135
  H 2.971956 -0.695265 -4.055725
  H 2.969897 -2.334499 -3.401324
