 20
 0.000000
  C 1.013684 0.117945 0.343948
  C 2.486810 0.116574 0.341247
  C 3.216759 0.594479 1.530463
  H 2.539765 0.910543 2.316927
  C 3.137278 -0.339642 -0.794606
  C 4.520857 -0.401575 -0.949049
  C 5.190313 -0.856341 -2.083245
  C 4.556036 -1.352986 -3.321080
  H 3.476529 -1.339271 -3.286998
  O 6.500786 -0.871234 -2.121895
  H 0.602461 0.492257 1.275261
  H 0.635198 -0.889950 0.167911
  H 0.635648 0.724226 -0.480453
  H 3.866345 1.430682 1.269653
  H 3.866467 -0.189532 1.920880
  H 2.513398 -0.668144 -1.612507
  H 5.135210 -0.069874 -0.122611
  H 4.908766 -2.365810 -3.516522
  H 4.908888 -0.756118 -4.162391
  H 6.941564 -0.546766 -1.313532
 20
 -0.205688
  C 1.016741 0.160986 0.313872
  C 2.488846 0.134052 0.329690
  C 3.208784 0.550992 1.549735
  H 2.524576 0.734447 2.374055
  C 3.148114 -0.282842 -0.819396
  C 4.533265 -0.381210 -0.952277
  C 5.195712 -0.892025 -2.064936
  C 4.540279 -1.408613 -3.282635
  H 3.511008 -1.698458 -3.117156
  O 6.503188 -0.962324 -2.097225
  H 0.600775 0.553921 1.234519
  H 0.627706 -0.845753 0.154477
  H 0.654706 0.752341 -0.527470
  H 3.766751 1.470370 1.356808
  H 3.937437 -0.199831 1.855598
  H 2.528700 -0.569827 -1.657046
  H 5.146687 -0.052585 -0.124980
  H 5.111116 -2.250451 -3.667880
  H 4.567766 -0.635867 -4.051821
  H 6.962046 -0.588251 -1.311442
 20
 1.478534
  C 1.029006 0.180721 0.300028
  C 2.504967 0.165417 0.298677
  C 3.218593 0.463175 1.555199
  H 2.574441 0.317489 2.417373
  C 3.159216 -0.135667 -0.884789
  C 4.546848 -0.177675 -1.046060
  C 5.193281 -0.893503 -2.049473
  C 4.531891 -1.472202 -3.238685
  H 3.518919 -1.800525 -3.038048
  O 6.479822 -1.126918 -1.989546
  H 0.624715 0.559810 1.233557
  H 0.650215 -0.832401 0.149193
  H 0.645421 0.770363 -0.532378
  H 3.522728 1.512523 1.549248
  H 4.118216 -0.134564 1.673323
  H 2.535635 -0.379779 -1.732966
  H 5.162875 0.271667 -0.278461
  H 5.126192 -2.298736 -3.619260
  H 4.493277 -0.708449 -4.017625
  H 6.954624 -0.667854 -1.270434
 20
 10.203439
  C 1.057528 0.168339 0.305493
  C 2.529700 0.221501 0.237416
  C 3.281860 0.337711 1.501724
  H 2.716577 -0.081553 2.332189
  C 3.144794 0.089267 -0.986763
  C 4.532881 0.135835 -1.235639
  C 5.123895 -0.877826 -1.985323
  C 4.520156 -1.556129 -3.153252
  H 3.462184 -1.766908 -3.025622
  O 6.362318 -1.238622 -1.748818
  H 0.695136 0.377673 1.305229
  H 0.710105 -0.825486 0.022377
  H 0.607842 0.862698 -0.402314
  H 3.426583 1.398220 1.720502
  H 4.259835 -0.133342 1.455731
  H 2.487721 -0.071396 -1.834450
  H 5.152713 0.744841 -0.593770
  H 5.061869 -2.474934 -3.365891
  H 4.628403 -0.891184 -4.009357
  H 6.855002 -0.674216 -1.125761
 20
 26.170396
  C 1.079969 0.145789 0.344008
  C 2.554073 0.170202 0.200684
  C 3.378633 0.238502 1.431762
  H 2.870615 -0.229088 2.268998
  C 3.106459 0.134967 -1.048444
  C 4.482431 0.341024 -1.390271
  C 4.992163 -0.845142 -1.919407
  C 4.546439 -1.544685 -3.142139
  H 3.467631 -1.556538 -3.269227
  O 6.109938 -1.338675 -1.438142
  H 0.776450 0.328055 1.372369
  H 0.687689 -0.826061 0.040921
  H 0.615922 0.881975 -0.307597
  H 3.528175 1.291773 1.693782
  H 4.352689 -0.217449 1.304775
  H 2.414850 0.013890 -1.874135
  H 5.086731 1.070490 -0.875203
  H 4.935955 -2.560691 -3.147173
  H 4.978749 -0.999263 -3.990263
  H 6.612888 -0.754556 -0.841112
 20
 48.771873
  C 1.186479 0.077550 0.280896
  C 2.657434 0.118732 0.111746
  C 3.510568 0.079550 1.326537
  H 3.028322 -0.485716 2.121550
  C 3.183299 0.221636 -1.148157
  C 4.524380 0.638873 -1.546536
  C 4.754745 -0.719741 -1.814136
  C 4.446677 -1.540968 -3.013182
  H 3.395572 -1.567508 -3.275627
  O 5.702860 -1.312306 -1.089649
  H 0.903684 0.164418 1.327325
  H 0.792570 -0.865038 -0.103113
  H 0.705222 0.867466 -0.291300
  H 3.644850 1.098610 1.695952
  H 4.495008 -0.337409 1.132761
  H 2.473530 0.248092 -1.972233
  H 5.121943 1.432535 -1.151578
  H 4.806470 -2.554454 -2.842463
  H 4.996100 -1.102434 -3.845362
  H 6.209467 -0.721915 -0.500249
 20
 63.177478
  C 1.283576 0.090427 0.246170
  C 2.749734 0.094887 0.095887
  C 3.568479 -0.146487 1.277040
  H 3.011103 -0.705930 2.026182
  C 3.263893 0.264945 -1.197772
  C 4.552261 0.834224 -1.725158
  C 4.514314 -0.579691 -1.792163
  C 4.405062 -1.601588 -2.884346
  H 3.410244 -1.640954 -3.321346
  O 5.476459 -1.101555 -0.920901
  H 0.977763 -0.062237 1.275507
  H 0.854429 -0.701487 -0.370134
  H 0.851030 1.013999 -0.127171
  H 3.824012 0.818291 1.727916
  H 4.494834 -0.663915 1.051850
  H 2.504606 0.442420 -1.969601
  H 5.105056 1.719736 -1.531949
  H 4.652780 -2.566201 -2.458883
  H 5.120615 -1.353117 -3.662445
  H 5.888067 -0.425873 -0.360972
 20
 83.902485
  C 1.291349 0.186202 0.276168
  C 2.739237 0.084456 0.083592
  C 3.561886 -0.304665 1.222760
  H 3.012042 -0.975610 1.881534
  C 3.228098 0.343138 -1.219022
  C 4.564536 0.881240 -1.727559
  C 4.364947 -0.492142 -1.918844
  C 4.413576 -1.671526 -2.837208
  H 3.485817 -1.797390 -3.383954
  O 5.479983 -0.975140 -1.018807
  H 1.004431 0.062360 1.322058
  H 0.791876 -0.580001 -0.314435
  H 0.909393 1.140434 -0.107970
  H 3.791043 0.585856 1.816935
  H 4.506347 -0.750853 0.925539
  H 2.468204 0.616817 -1.942675
  H 5.141911 1.737780 -1.456948
  H 4.593071 -2.551205 -2.236903
  H 5.232646 -1.537734 -3.533586
  H 5.899542 -0.284715 -0.484662
 20
 102.654840
  C 1.248986 0.241586 0.309174
  C 2.671822 0.063085 0.024527
  C 3.556851 -0.391596 1.083830
  H 3.034220 -1.030539 1.791159
  C 3.125389 0.344861 -1.280023
  C 4.532093 0.813681 -1.685015
  C 4.288074 -0.444553 -1.992555
  C 4.349804 -1.639839 -2.800296
  H 3.389905 -1.819006 -3.286541
  O 5.881139 -0.934494 -0.873550
  H 1.017551 0.097119 1.358557
  H 0.668022 -0.471518 -0.278841
  H 0.906978 1.222680 -0.017161
  H 3.887055 0.482789 1.652846
  H 4.449525 -0.880112 0.693172
  H 2.363070 0.686992 -1.979730
  H 5.068074 1.689640 -1.421401
  H 4.574530 -2.495466 -2.164156
  H 5.144896 -1.538699 -3.537173
  H 6.295166 -0.294570 -0.284750
 20
 103.736311
  C 1.203173 0.349322 0.120656
  C 2.618467 0.029065 -0.089755
  C 3.388975 -0.516313 1.020415
  H 2.764711 -1.107868 1.684851
  C 3.173792 0.273253 -1.349583
  C 4.747563 0.599881 -1.539597
  C 4.313748 -0.549586 -1.968354
  C 4.347638 -1.714582 -2.801161
  H 3.426140 -1.795335 -3.378300
  O 6.090826 -0.487966 -0.432578
  H 0.902756 0.218261 1.155170
  H 0.589139 -0.298453 -0.508432
  H 0.978909 1.365103 -0.204034
  H 3.756921 0.322565 1.617589
  H 4.259861 -1.078761 0.689746
  H 2.524301 0.725967 -2.094500
  H 5.248985 1.467182 -1.180257
  H 4.421102 -2.614973 -2.186723
  H 5.219981 -1.679765 -3.449676
  H 6.452190 0.156855 0.182888
