 29
 0.000000
  C 0.984434 0.138973 0.379717
  C 2.460763 0.142550 0.393558
  C 3.236453 0.609639 1.567751
  C 2.450400 1.095696 2.782098
  C 3.392809 1.538824 3.896736
  C 3.085634 -0.318709 -0.758231
  C 4.463118 -0.405303 -0.969566
  C 5.128261 -0.860401 -2.100005
  C 4.617158 -1.383775 -3.397160
  C 3.125918 -1.501511 -3.682756
  H 2.967229 -1.901171 -4.673427
  O 6.450535 -0.859034 -2.109176
  H 0.538385 0.503214 1.298026
  H 0.617949 -0.873206 0.204323
  H 0.618988 0.757169 -0.441718
  H 3.894586 1.422476 1.240548
  H 3.891648 -0.207167 1.890860
  H 1.810781 0.297250 3.162941
  H 1.813741 1.938948 2.507747
  H 4.027137 0.716988 4.221911
  H 2.822282 1.882784 4.756067
  H 4.030079 2.356768 3.567495
  H 2.431057 -0.635416 -1.551730
  H 5.085895 -0.075387 -0.146369
  H 5.071098 -2.373019 -3.524519
  H 5.068256 -0.757847 -4.175387
  H 2.649745 -0.523778 -3.632492
  H 2.652547 -2.172291 -2.967720
  H 6.838837 -0.526130 -1.278542
 29
 0.277317
  C 0.987098 0.415273 0.285725
  C 2.443832 0.194614 0.370990
  C 3.217077 0.504710 1.595993
  C 2.454837 1.088903 2.782326
  C 3.404522 1.356978 3.946306
  C 3.061944 -0.293450 -0.777481
  C 4.437550 -0.349060 -0.992278
  C 5.103767 -0.703770 -2.161434
  C 4.604945 -1.367474 -3.398319
  C 3.161949 -1.832279 -3.509931
  H 3.057048 -2.399837 -4.431613
  O 6.397468 -0.463577 -2.260585
  H 0.543970 0.742354 1.217343
  H 0.483838 -0.488849 -0.057139
  H 0.799661 1.170485 -0.481096
  H 4.024727 1.197934 1.337425
  H 3.714752 -0.415565 1.924222
  H 1.682468 0.394160 3.116370
  H 1.975836 2.026968 2.496962
  H 3.883923 0.438227 4.277039
  H 2.860782 1.773981 4.790355
  H 4.178624 2.066681 3.662812
  H 2.405813 -0.580106 -1.580851
  H 5.072891 0.019802 -0.195995
  H 5.266998 -2.229006 -3.542687
  H 4.838679 -0.696634 -4.232082
  H 2.472761 -0.995361 -3.569936
  H 2.889014 -2.484507 -2.685619
  H 6.801378 -0.065190 -1.467453
 29
 3.519396
  C 1.074735 0.522651 0.211874
  C 2.475184 0.105789 0.417392
  C 3.203316 0.369217 1.677771
  C 2.478612 1.174223 2.753954
  C 3.368285 1.347835 3.981240
  C 3.093998 -0.471649 -0.688957
  C 4.456600 -0.424867 -0.968767
  C 5.047153 -0.614224 -2.213190
  C 4.545805 -1.312106 -3.430388
  C 3.179032 -1.978027 -3.447430
  H 3.076088 -2.517542 -4.385707
  O 6.266089 -0.151863 -2.423395
  H 0.592708 0.891989 1.108572
  H 0.483909 -0.283387 -0.220817
  H 1.095772 1.320208 -0.536170
  H 4.151082 0.867849 1.454999
  H 3.486874 -0.602954 2.101551
  H 1.563440 0.664941 3.059253
  H 2.212341 2.159409 2.367989
  H 3.629113 0.383700 4.411853
  H 2.853344 1.927273 4.743274
  H 4.287607 1.870686 3.726820
  H 2.434480 -0.839492 -1.455905
  H 5.100177 0.003354 -0.210062
  H 5.308122 -2.071049 -3.641756
  H 4.620781 -0.603693 -4.261864
  H 2.373896 -1.249611 -3.410445
  H 3.073988 -2.695264 -2.638226
  H 6.696593 0.238422 -1.640487
 29
 8.866148
  C 1.192341 0.569136 0.126104
  C 2.516202 0.014003 0.466474
  C 3.196205 0.286703 1.748705
  C 2.515706 1.252273 2.712047
  C 3.330447 1.390190 3.995693
  C 3.138439 -0.660632 -0.585378
  C 4.481561 -0.526085 -0.929322
  C 4.969740 -0.559976 -2.228517
  C 4.456497 -1.246561 -3.448133
  C 3.175229 -2.066471 -3.409526
  H 3.052001 -2.548555 -4.376313
  O 6.106927 0.058062 -2.503223
  H 0.691602 1.054668 0.954123
  H 0.542974 -0.186152 -0.312660
  H 1.388463 1.303177 -0.663046
  H 4.216389 0.637306 1.561184
  H 3.324177 -0.680047 2.255263
  H 1.518746 0.892002 2.971611
  H 2.416571 2.234893 2.246761
  H 3.416472 0.433807 4.506254
  H 2.851904 2.090774 4.674528
  H 4.331627 1.757727 3.785622
  H 2.479678 -1.113490 -1.309201
  H 5.129832 -0.061693 -0.195832
  H 5.281094 -1.903650 -3.749477
  H 4.391133 -0.495308 -4.242237
  H 2.299846 -1.443658 -3.252916
  H 3.222002 -2.845094 -2.654109
  H 6.572755 0.418603 -1.727299
 29
 14.729182
  C 1.337355 0.563796 0.026846
  C 2.591864 -0.067204 0.501434
  C 3.199434 0.216297 1.815149
  C 2.598003 1.352641 2.640136
  C 3.238607 1.405703 4.026162
  C 3.241367 -0.812413 -0.489088
  C 4.545109 -0.547487 -0.917195
  C 4.918905 -0.526762 -2.249126
  C 4.360157 -1.227096 -3.437795
  C 3.112636 -2.099703 -3.331574
  H 2.961794 -2.592012 -4.290610
  O 5.964756 0.203048 -2.613437
  H 0.829181 1.153319 0.777209
  H 0.654407 -0.168681 -0.397557
  H 1.652574 1.208808 -0.799928
  H 4.270173 0.384283 1.701994
  H 3.129745 -0.713529 2.399307
  H 1.521299 1.208679 2.761450
  H 2.762212 2.300124 2.138390
  H 3.078279 0.475319 4.563156
  H 2.806612 2.208052 4.611478
  H 4.311895 1.580605 3.956470
  H 2.596395 -1.341468 -1.170807
  H 5.199252 -0.016355 -0.221842
  H 5.193159 -1.855311 -3.787750
  H 4.221150 -0.476267 -4.223675
  H 2.223243 -1.513174 -3.134499
  H 3.228149 -2.874289 -2.576965
  H 6.403223 0.679740 -1.884638
 29
 22.718644
  C 1.475300 0.498682 -0.068877
  C 2.631399 -0.187088 0.541812
  C 3.196080 0.162792 1.856028
  C 2.569430 1.346748 2.597401
  C 3.250957 1.556168 3.945254
  C 3.286477 -1.012803 -0.383623
  C 4.579388 -0.718903 -0.836919
  C 4.831752 -0.495320 -2.177275
  C 4.256682 -1.122555 -3.404468
  C 3.025405 -2.013281 -3.332536
  H 2.833997 -2.405554 -4.328307
  O 5.834856 0.304258 -2.519736
  H 0.908969 1.119300 0.612989
  H 0.815948 -0.190271 -0.598504
  H 1.952722 1.114398 -0.843275
  H 4.273975 0.317474 1.768405
  H 3.100833 -0.734112 2.482865
  H 1.507458 1.168083 2.769597
  H 2.672616 2.251863 2.003250
  H 3.115059 0.688433 4.589313
  H 2.829692 2.418093 4.452445
  H 4.321943 1.727669 3.821236
  H 2.651806 -1.597533 -1.031695
  H 5.238706 -0.223734 -0.131125
  H 5.090645 -1.714369 -3.811672
  H 4.090118 -0.322824 -4.128162
  H 2.143525 -1.458939 -3.033387
  H 3.182726 -2.862502 -2.670911
  H 6.406660 0.578388 -1.779496
 29
 32.230584
  C 1.678869 0.568552 -0.186345
  C 2.717941 -0.185647 0.542464
  C 3.221701 0.164772 1.880544
  C 2.605122 1.381964 2.561544
  C 3.151781 1.537299 3.975959
  C 3.353759 -1.109051 -0.312825
  C 4.621643 -0.774490 -0.835595
  C 4.734332 -0.460658 -2.170334
  C 4.116158 -1.079861 -3.385894
  C 2.970016 -2.070934 -3.264479
  H 2.693470 -2.391350 -4.265693
  O 5.693048 0.379194 -2.553077
  H 1.165622 1.317675 0.398026
  H 0.972350 -0.080122 -0.701856
  H 2.272765 1.036530 -0.992649
  H 4.311918 0.270188 1.851653
  H 3.052454 -0.715324 2.512065
  H 1.521568 1.275236 2.615445
  H 2.834848 2.281748 1.990499
  H 2.891217 0.677499 4.591139
  H 2.737491 2.423363 4.446988
  H 4.235112 1.635829 3.968620
  H 2.716398 -1.750614 -0.900438
  H 5.288545 -0.249837 -0.157435
  H 4.960679 -1.589295 -3.867875
  H 3.834709 -0.269197 -4.063945
  H 2.089769 -1.619471 -2.819371
  H 3.263785 -2.956182 -2.707590
  H 6.312006 0.634904 -1.844553
 29
 40.528142
  C 1.808810 0.546309 -0.267933
  C 2.758885 -0.242185 0.539666
  C 3.231992 0.134899 1.884334
  C 2.585898 1.361201 2.525919
  C 3.155824 1.597068 3.921377
  C 3.376786 -1.229390 -0.262050
  C 4.635196 -0.879007 -0.806351
  C 4.690205 -0.464646 -2.111563
  C 4.068213 -1.037872 -3.350087
  C 2.885929 -1.990836 -3.242741
  H 2.598246 -2.293013 -4.249185
  O 5.622466 0.424539 -2.460894
  H 1.336501 1.370401 0.250859
  H 1.081255 -0.056524 -0.808691
  H 2.478202 0.905061 -1.080322
  H 4.316418 0.251989 1.872473
  H 3.059149 -0.738323 2.534148
  H 1.500621 1.218049 2.605609
  H 2.773765 2.243137 1.915454
  H 3.015788 0.724034 4.555551
  H 2.656672 2.439509 4.397494
  H 4.219359 1.818065 3.873643
  H 2.731023 -1.873207 -0.836251
  H 5.364580 -0.457236 -0.120616
  H 4.899157 -1.558455 -3.837068
  H 3.809513 -0.207076 -4.010472
  H 2.019046 -1.514634 -2.790276
  H 3.149849 -2.890899 -2.692557
  H 6.190410 0.721829 -1.730047
 29
 52.368866
  C 1.889496 0.421329 -0.322479
  C 2.720351 -0.390606 0.574023
  C 3.187500 0.041761 1.902123
  C 2.675531 1.388376 2.402702
  C 3.206055 1.674392 3.805310
  C 3.364931 -1.414362 -0.184651
  C 4.605837 -0.955715 -0.727012
  C 4.574611 -0.379611 -1.979203
  C 3.945586 -0.857091 -3.257897
  C 2.909421 -1.973095 -3.240201
  H 2.594240 -2.160933 -4.262681
  O 5.497671 0.543545 -2.277166
  H 1.399655 1.276224 0.113431
  H 1.257011 -0.129516 -1.016762
  H 2.688489 0.710842 -1.072452
  H 4.277790 0.030150 1.924255
  H 2.889122 -0.742308 2.614047
  H 1.582887 1.386532 2.432874
  H 3.001970 2.183621 1.730514
  H 2.844235 0.937832 4.514319
  H 2.877193 2.654109 4.142420
  H 4.292019 1.662030 3.823077
  H 2.737127 -2.032759 -0.804941
  H 5.348998 -0.595448 -0.025843
  H 4.796876 -1.168667 -3.878223
  H 3.519497 0.022446 -3.752790
  H 2.018608 -1.698975 -2.680520
  H 3.325696 -2.893429 -2.852433
  H 6.083623 0.773953 -1.533846
 29
 68.423604
  C 2.171019 0.544735 -0.416527
  C 2.881284 -0.297467 0.535548
  C 3.184236 0.022560 1.931224
  C 2.695623 1.380770 2.441387
  C 3.048039 1.560672 3.913382
  C 3.509549 -1.373216 -0.197838
  C 4.689983 -0.899143 -0.830756
  C 4.480586 -0.311943 -2.042554
  C 3.815875 -0.890491 -3.275332
  C 2.825165 -2.027688 -3.124886
  H 2.482169 -2.314907 -4.121512
  O 5.378169 0.613326 -2.451112
  H 1.772051 1.483750 -0.076759
  H 1.562252 0.063091 -1.171850
  H 3.002780 0.650707 -1.178501
  H 4.264522 -0.070318 2.088087
  H 2.747606 -0.766027 2.537194
  H 1.619553 1.453478 2.324561
  H 3.157488 2.183439 1.869191
  H 2.600886 0.788624 4.511382
  H 2.676813 2.521130 4.279524
  H 4.129102 1.531923 4.065679
  H 2.877435 -2.076149 -0.712913
  H 5.407392 -0.391855 -0.178639
  H 4.664754 -1.265005 -3.867856
  H 3.372699 -0.072896 -3.847456
  H 1.946555 -1.737809 -2.560948
  H 3.292730 -2.905027 -2.678615
  H 6.034230 0.840528 -1.778095
 29
 85.467131
  C 2.118286 0.446723 -0.338485
  C 2.805880 -0.317954 0.559727
  C 3.184067 0.026880 1.945760
  C 2.645442 1.357803 2.463620
  C 3.073334 1.583540 3.909669
  C 3.484030 -1.392381 -0.175149
  C 4.649425 -0.917888 -0.805131
  C 4.483501 -0.272671 -2.057607
  C 3.844375 -0.860955 -3.312557
  C 2.804167 -1.954562 -3.159081
  H 2.483742 -2.259803 -4.152346
  O 5.440674 0.612594 -2.450644
  H 1.710270 1.391638 -0.021886
  H 1.615799 0.014449 -1.191480
  H 3.394217 0.486938 -1.454505
  H 4.275660 0.001664 2.032068
  H 2.820833 -0.779330 2.593987
  H 1.556124 1.365917 2.410029
  H 3.026333 2.175118 1.848754
  H 2.687408 0.799260 4.556882
  H 2.693903 2.535289 4.273017
  H 4.157613 1.597537 3.996659
  H 2.850168 -2.117554 -0.665072
  H 5.400519 -0.482423 -0.151008
  H 4.686903 -1.262240 -3.883438
  H 3.442404 -0.031030 -3.896191
  H 1.917322 -1.614737 -2.631659
  H 3.221417 -2.830522 -2.670949
  H 6.097706 0.811047 -1.765078
 29
 74.989475
  C 2.012762 0.521353 -0.227946
  C 2.776900 -0.228285 0.589708
  C 3.199417 0.053274 1.979497
  C 2.599982 1.321133 2.584302
  C 3.051469 1.487095 4.032818
  C 3.469904 -1.236691 -0.232516
  C 4.622473 -0.785468 -0.863521
  C 4.535392 -0.233517 -2.216787
  C 3.937679 -0.994963 -3.421143
  C 2.808240 -1.967751 -3.165380
  H 2.509620 -2.402774 -4.109304
  O 5.592206 0.504447 -2.679593
  H 1.599847 1.450899 0.107277
  H 1.568691 0.125964 -1.135066
  H 3.690230 0.496544 -1.830654
  H 4.294691 0.096284 2.030326
  H 2.902216 -0.809607 2.585273
  H 1.510330 1.269663 2.555890
  H 2.919420 2.189579 2.008210
  H 2.723708 0.651014 4.639674
  H 2.632005 2.397357 4.457723
  H 4.138577 1.549542 4.096408
  H 2.844776 -2.001170 -0.685588
  H 5.362611 -0.294366 -0.238037
  H 4.787612 -1.530505 -3.859774
  H 3.633095 -0.248089 -4.145726
  H 1.932436 -1.475925 -2.760464
  H 3.126633 -2.786475 -2.518369
  H 6.178434 0.819826 -1.995826
 29
 62.938093
  C 1.662716 0.444103 -0.026581
  C 2.617476 -0.228231 0.632691
  C 3.182933 0.070163 1.979219
  C 2.611632 1.313089 2.654014
  C 3.235413 1.516605 4.032514
  C 3.278911 -1.145086 -0.297296
  C 4.467111 -0.735674 -0.876313
  C 4.563909 -0.224850 -2.254459
  C 4.115935 -1.029682 -3.491337
  C 2.954717 -1.989974 -3.337573
  H 2.774391 -2.448186 -4.309236
  O 5.731168 0.418905 -2.602727
  H 1.159633 1.294193 0.403096
  H 1.294126 0.104228 -0.979096
  H 3.773578 0.573578 -2.043044
  H 4.269215 0.159434 1.921938
  H 2.977160 -0.806572 2.604440
  H 1.530338 1.208803 2.768201
  H 2.812477 2.194117 2.038056
  H 3.016191 0.680142 4.686649
  H 2.838691 2.418450 4.497424
  H 4.316494 1.619441 3.958631
  H 2.617213 -1.813115 -0.828257
  H 5.221851 -0.325019 -0.199908
  H 4.996973 -1.582721 -3.811705
  H 3.904727 -0.297371 -4.270499
  H 2.037701 -1.485839 -3.046230
  H 3.187347 -2.789228 -2.639554
  H 6.320022 0.603215 -1.861114
 29
 55.056091
  C 1.584065 0.513851 0.050970
  C 2.625301 -0.127781 0.614256
  C 3.257431 0.166390 1.931989
  C 2.541968 1.228937 2.760700
  C 3.233474 1.415084 4.107591
  C 3.269527 -0.978963 -0.375305
  C 4.480250 -0.617615 -0.929210
  C 4.672043 -0.288137 -2.352896
  C 4.235447 -1.211996 -3.509071
  C 2.929507 -1.970960 -3.377593
  H 2.768397 -2.521247 -4.301617
  O 5.911029 0.216630 -2.705647
  H 1.075016 1.329749 0.532181
  H 1.191268 0.203586 -0.902187
  H 3.939691 0.581832 -2.309600
  H 4.300414 0.461455 1.797010
  H 3.273394 -0.776081 2.490822
  H 1.506962 0.930392 2.931466
  H 2.542367 2.181969 2.227207
  H 3.239752 0.486084 4.671281
  H 2.714148 2.163604 4.698357
  H 4.262159 1.742918 3.975574
  H 2.611853 -1.653795 -0.905749
  H 5.222383 -0.186671 -0.263470
  H 5.057296 -1.921672 -3.638954
  H 4.213604 -0.583375 -4.399457
  H 2.083238 -1.301740 -3.248282
  H 2.964873 -2.702803 -2.576718
  H 6.380067 0.635618 -1.967697
 29
 51.600122
  C 1.458318 0.696561 0.143757
  C 2.485091 -0.036912 0.619750
  C 3.146634 0.111864 1.939563
  C 2.638361 1.249703 2.802145
  C 3.380736 1.287378 4.137160
  C 3.082641 -0.800647 -0.468904
  C 4.330446 -0.480128 -0.959182
  C 4.548080 -0.213873 -2.415801
  C 4.351563 -1.302669 -3.493883
  C 3.164220 -2.252195 -3.381264
  H 3.186129 -2.917438 -4.238754
  O 5.743765 0.414026 -2.720464
  H 1.094043 1.551223 0.686295
  H 1.024178 0.500878 -0.820486
  H 3.715509 0.529098 -2.516965
  H 4.231845 0.205949 1.815023
  H 2.983910 -0.838216 2.473696
  H 1.578155 1.123252 2.992867
  H 2.785591 2.204426 2.287614
  H 3.226651 0.364979 4.692854
  H 3.022898 2.106476 4.744542
  H 4.446072 1.420894 3.986644
  H 2.377684 -1.271388 -1.135464
  H 5.039347 -0.016354 -0.285834
  H 5.275747 -1.878392 -3.474103
  H 4.309960 -0.781028 -4.448172
  H 2.210667 -1.723389 -3.418076
  H 3.219438 -2.868545 -2.489616
  H 6.029245 1.029727 -2.028995
