 17
 0.000000
  H 1.384764 -0.008650 0.002453
  C 2.457155 0.001642 0.012403
  C 3.170349 0.811842 0.795460
  C 4.607941 0.828361 0.811423
  C 5.327915 1.645098 1.600805
  C 6.765893 1.660228 1.615427
  C 7.482897 2.470770 2.398813
  C 8.972275 2.501417 2.428433
  H 2.953984 -0.688202 -0.654339
  H 2.659665 1.498316 1.458943
  H 5.112159 0.139725 0.145859
  H 4.823968 2.333867 2.266499
  H 7.272738 0.972446 0.950684
  H 6.984072 3.161493 3.066400
  H 9.406687 1.784048 1.735092
  H 9.331039 2.269294 3.432078
  H 9.331038 3.496571 2.162262
 17
 13.097582
  H 1.316867 -0.065161 -0.052167
  C 2.387719 -0.064929 -0.051939
  C 3.189656 0.840473 0.823131
  C 4.610130 0.848254 0.830651
  C 5.342221 1.663552 1.618642
  C 6.776332 1.673458 1.628217
  C 7.503485 2.480310 2.408037
  C 8.992136 2.505290 2.432177
  H 2.881219 -0.750934 -0.714969
  H 2.678384 1.523220 1.483010
  H 5.107511 0.156943 0.162501
  H 4.844638 2.354714 2.286648
  H 7.275633 0.982905 0.960796
  H 7.010984 3.173258 3.077773
  H 9.417452 1.785487 1.736484
  H 9.354895 2.273050 3.434067
  H 9.354898 3.498697 2.165947
 17
 39.380338
  H 1.280152 -0.111152 -0.096615
  C 2.347630 -0.131057 -0.115852
  C 3.213370 0.880798 0.862108
  C 4.605157 0.873789 0.855333
  C 5.351081 1.683208 1.637644
  C 6.775978 1.686129 1.640452
  C 7.517988 2.484136 2.411718
  C 9.003621 2.499331 2.426387
  H 2.869346 -0.793093 -0.755718
  H 2.659926 1.537149 1.496478
  H 5.099619 0.183114 0.187789
  H 4.859039 2.375686 2.306914
  H 7.264446 0.992001 0.969574
  H 7.035093 3.179686 3.083968
  H 9.412741 1.776041 1.727320
  H 9.373113 2.269407 3.425505
  H 9.373040 3.489889 2.162592
 17
 68.050938
  H 1.228420 -0.158842 -0.142716
  C 2.291418 -0.206289 -0.188567
  C 3.210116 0.916373 0.896490
  C 4.588217 0.900249 0.880908
  C 5.351761 1.707768 1.661383
  C 6.772785 1.696802 1.650791
  C 7.547105 2.500024 2.427114
  C 9.039463 2.497108 2.424302
  H 2.880458 -0.863188 -0.823467
  H 2.580428 1.552286 1.511103
  H 5.083320 0.207111 0.210990
  H 4.865256 2.403350 2.333662
  H 7.249820 0.994977 0.972483
  H 7.075766 3.203753 3.107270
  H 9.431590 1.765600 1.717320
  H 9.420149 2.263453 3.421736
  H 9.420260 3.486207 2.156765
 17
 96.236412
  H 1.193782 -0.222439 -0.204215
  C 2.242848 -0.280153 -0.259973
  C 3.219477 0.950786 0.929745
  C 4.585879 0.924814 0.904665
  C 5.372209 1.740082 1.692632
  C 6.779023 1.716682 1.670042
  C 7.562769 2.507314 2.434200
  C 9.049469 2.488533 2.416056
  H 2.849537 -0.905133 -0.864011
  H 2.551424 1.562808 1.521254
  H 5.082116 0.228610 0.231792
  H 4.891958 2.438549 2.367693
  H 7.246804 1.009992 0.987037
  H 7.103806 3.214622 3.117814
  H 9.425663 1.752433 1.704652
  H 9.438141 2.251119 3.409021
  H 9.438390 3.473327 2.144846
 17
 121.557154
  H 1.130225 -0.287820 -0.267360
  C 2.187360 -0.352351 -0.329732
  C 3.227997 0.984194 0.962043
  C 4.577044 0.951178 0.930122
  C 5.379859 1.767524 1.719120
  C 6.786888 1.733296 1.686024
  C 7.584014 2.516399 2.442888
  C 9.071506 2.483656 2.411230
  H 2.815230 -0.968468 -0.925225
  H 2.545052 1.571678 1.529856
  H 5.068204 0.258439 0.260576
  H 4.907033 2.466348 2.394544
  H 7.242512 1.027986 1.004332
  H 7.137689 3.225223 3.127971
  H 9.432998 1.746618 1.698874
  H 9.467290 2.243058 3.399146
  H 9.467177 3.462585 2.137151
 17
 143.081923
  H 1.061153 -0.356052 -0.333332
  C 2.119656 -0.423967 -0.398960
  C 3.237510 1.012800 0.989687
  C 4.580935 0.974195 0.952381
  C 5.392835 1.788490 1.739403
  C 6.800594 1.746302 1.698634
  C 7.606681 2.525356 2.451588
  C 9.090074 2.483513 2.411138
  H 2.750798 -1.037093 -0.991552
  H 2.544921 1.597904 1.555188
  H 5.069332 0.278964 0.280438
  H 4.924898 2.490142 2.417550
  H 7.250998 1.036342 1.012455
  H 7.168338 3.236658 3.139060
  H 9.442789 1.743762 1.696187
  H 9.490140 2.240503 3.396749
  H 9.490187 3.460373 2.134662
 17
 160.922933
  H 0.996344 -0.425816 -0.400748
  C 2.053394 -0.496048 -0.468621
  C 3.244990 1.042343 1.018241
  C 4.583263 0.998140 0.975518
  C 5.407037 1.810934 1.761087
  C 6.808013 1.759467 1.711341
  C 7.626083 2.534128 2.460045
  C 9.111103 2.481256 2.408930
  H 2.690615 -1.106603 -1.058735
  H 2.543846 1.618998 1.575583
  H 5.067857 0.302116 0.302806
  H 4.946643 2.513833 2.440441
  H 7.248759 1.048174 1.023871
  H 7.197032 3.248477 3.150467
  H 9.453316 1.739130 1.691671
  H 9.516887 2.235309 3.391798
  H 9.516847 3.455118 2.129650
 17
 175.058714
  H 0.932608 -0.498751 -0.471248
  C 1.990227 -0.569217 -0.539341
  C 3.252315 1.072085 1.046984
  C 4.583132 1.023085 0.999631
  C 5.418348 1.833900 1.783288
  C 6.818915 1.772591 1.724038
  C 7.648246 2.541995 2.467664
  C 9.130418 2.477640 2.405453
  H 2.632450 -1.176614 -1.126397
  H 2.537811 1.642242 1.598039
  H 5.065137 0.325285 0.325206
  H 4.964121 2.539433 2.465184
  H 7.251975 1.057364 1.032772
  H 7.229193 3.259178 3.160827
  H 9.461479 1.732733 1.685511
  H 9.541715 2.228583 3.385139
  H 9.541734 3.448332 2.123155
 17
 185.876557
  H 0.868947 -0.574164 -0.544133
  C 1.927110 -0.642825 -0.610478
  C 3.257794 1.102121 1.076015
  C 4.583707 1.048570 1.024260
  C 5.431344 1.857063 1.805671
  C 6.826258 1.785335 1.736346
  C 7.668314 2.549345 2.474760
  C 9.150705 2.472650 2.400622
  H 2.573850 -1.248729 -1.196099
  H 2.533289 1.662743 1.617857
  H 5.062195 0.349618 0.348720
  H 4.985153 2.564257 2.489177
  H 7.249145 1.067877 1.042926
  H 7.259891 3.269777 3.171063
  H 9.469960 1.725094 1.678113
  H 9.568177 2.220123 3.377113
  H 9.568168 3.439978 2.114979
 17
 193.684947
  H 0.797822 -0.655870 -0.623108
  C 1.859896 -0.716662 -0.681831
  C 3.264750 1.129719 1.102685
  C 4.586010 1.073131 1.047998
  C 5.444688 1.878537 1.826428
  C 6.838789 1.797111 1.747731
  C 7.690989 2.556037 2.481235
  C 9.170159 2.468701 2.396817
  H 2.501231 -1.326615 -1.271380
  H 2.534238 1.687812 1.642082
  H 5.060577 0.372106 0.370459
  H 5.005585 2.588416 2.512527
  H 7.253716 1.076406 1.051174
  H 7.292300 3.278991 3.179977
  H 9.479377 1.718996 1.672233
  H 9.592334 2.213131 3.370169
  H 9.592367 3.432855 2.108229
 17
 198.056237
  H 0.709331 -0.746214 -0.710439
  C 1.779443 -0.788931 -0.751665
  C 3.274673 1.152469 1.124676
  C 4.595790 1.094382 1.068543
  C 5.464127 1.896348 1.843645
  C 6.853525 1.807292 1.757566
  C 7.713021 2.563136 2.488090
  C 9.190755 2.468408 2.396537
  H 2.397488 -1.415146 -1.356958
  H 2.554699 1.715894 1.669229
  H 5.064364 0.390886 0.388616
  H 5.032907 2.608295 2.531743
  H 7.261371 1.085028 1.059503
  H 7.321424 3.288065 3.188738
  H 9.494050 1.717514 1.670809
  H 9.615753 2.210607 3.368003
  H 9.615797 3.430608 2.105774
 17
 199.282015
  H 0.616548 -0.841979 -0.803009
  C 1.694127 -0.861174 -0.821473
  C 3.284249 1.173364 1.144874
  C 4.604949 1.113867 1.087381
  C 5.481581 1.911667 1.858451
  C 6.872269 1.815989 1.765962
  C 7.736876 2.568586 2.493350
  C 9.212518 2.468172 2.396313
  H 2.280338 -1.507364 -1.446102
  H 2.574938 1.745652 1.697996
  H 5.067544 0.407872 0.405039
  H 5.056640 2.626100 2.548955
  H 7.274963 1.091903 1.066137
  H 7.350962 3.294880 3.195314
  H 9.511384 1.716446 1.669790
  H 9.639453 2.209074 3.366366
  H 9.639516 3.428929 2.104293
 17
 197.186008
  H 0.533415 -0.969426 -0.926450
  C 1.624333 -0.931874 -0.889654
  C 3.279696 1.207750 1.178174
  C 4.599579 1.144544 1.117203
  C 5.496738 1.935148 1.881287
  C 6.887968 1.827033 1.776591
  C 7.767336 2.572221 2.496679
  C 9.242276 2.459248 2.387642
  H 2.159737 -1.615011 -1.550406
  H 2.559505 1.775127 1.726623
  H 5.056216 0.436460 0.432907
  H 5.080822 2.653006 2.575062
  H 7.279385 1.100312 1.074147
  H 7.392243 3.301779 3.201710
  H 9.527551 1.704773 1.658665
  H 9.675703 2.197573 3.354629
  H 9.675787 3.416597 2.092982
 17
 188.890100
  H 0.523284 -1.206447 -0.614112
  C 1.605877 -0.999488 -0.679895
  C 3.388287 1.165544 1.150196
  C 4.653204 1.355841 0.791569
  C 5.508154 2.073295 1.656171
  C 6.898092 1.870647 1.686577
  C 7.727827 2.489151 2.558402
  C 9.209240 2.405763 2.507010
  H 1.989271 -1.668881 -1.466937
  H 2.755352 1.795896 1.751904
  H 5.104292 0.744450 0.024583
  H 5.063866 2.662701 2.444856
  H 7.322221 1.236244 0.922062
  H 7.311694 3.115621 3.336081
  H 9.540879 1.768372 1.696343
  H 9.591292 2.008971 3.445208
  H 9.645458 3.397579 2.377774
