 16
 0.000000
  H 1.530505 0.050359 0.243213
  C 2.611266 0.053899 0.180469
  C 3.328808 -0.020114 1.492204
  C 2.358139 -0.086381 2.666512
  H 2.899926 -0.139533 3.608495
  C 3.185623 0.121732 -1.021661
  H 2.557864 0.171422 -1.902285
  C 4.608434 0.135895 -1.272589
  C 5.130053 0.204816 -2.494115
  H 6.192707 0.214408 -2.664082
  H 3.977998 0.853667 1.611274
  H 3.978008 -0.901747 1.512219
  H 1.722190 -0.964765 2.586681
  H 1.722176 0.795413 2.685999
  H 5.260926 0.087303 -0.411396
  H 4.508060 0.254384 -3.372592
 16
 0.097733
  H 1.540030 -0.273214 0.223530
  C 2.616068 -0.141326 0.173756
  C 3.323421 -0.201052 1.490333
  C 2.367748 0.068172 2.654100
  H 2.904868 0.019006 3.599572
  C 3.185078 0.030807 -1.019791
  H 2.556242 0.040955 -1.905762
  C 4.600066 0.196086 -1.265537
  C 5.115296 0.353804 -2.480508
  H 6.175124 0.472953 -2.642944
  H 4.131965 0.530013 1.523961
  H 3.755398 -1.199835 1.624987
  H 1.571987 -0.672239 2.670247
  H 1.925100 1.058375 2.557335
  H 5.252466 0.184668 -0.401655
  H 4.489992 0.364113 -3.362487
 16
 6.382804
  H 1.591954 -0.458637 0.257899
  C 2.664688 -0.271288 0.190972
  C 3.390981 -0.294171 1.490803
  C 2.372581 0.132620 2.621280
  H 2.881078 0.132731 3.589054
  C 3.193257 -0.016725 -1.007587
  H 2.542914 -0.007142 -1.877179
  C 4.590158 0.211435 -1.278865
  C 5.073903 0.449186 -2.494596
  H 6.125852 0.584197 -2.674788
  H 4.203185 0.415107 1.610234
  H 3.605350 -1.301020 1.841121
  H 1.513122 -0.516420 2.582359
  H 2.011343 1.136406 2.393599
  H 5.256988 0.148234 -0.438219
  H 4.427399 0.488893 -3.361694
 16
 21.790195
  H 1.656996 -0.640668 0.299805
  C 2.688720 -0.331183 0.214253
  C 3.429250 -0.346776 1.481115
  C 2.323345 0.202622 2.590210
  H 2.828207 0.062272 3.530802
  C 3.184156 -0.047849 -0.990189
  H 2.536029 -0.047854 -1.855722
  C 4.580488 0.209379 -1.289643
  C 5.044043 0.515754 -2.505437
  H 6.093559 0.651769 -2.690136
  H 4.220728 0.376591 1.654864
  H 3.469728 -1.272121 2.022052
  H 1.507814 -0.485730 2.488829
  H 2.148753 1.244137 2.326990
  H 5.269388 0.133636 -0.451044
  H 4.392361 0.610328 -3.365694
 16
 40.740833
  H 1.660514 -0.625447 0.191249
  C 2.662499 -0.288403 0.184959
  C 3.443649 -0.337666 1.434967
  C 2.268629 0.166875 2.683306
  H 2.912544 0.091143 3.547746
  C 3.181680 -0.032781 -1.028857
  H 2.460975 0.006007 -1.859219
  C 4.568798 0.228945 -1.284899
  C 5.054242 0.533429 -2.495461
  H 6.130026 0.632352 -2.690768
  H 4.272809 0.332365 1.562763
  H 3.433070 -1.194084 2.103984
  H 1.543224 -0.616795 2.575984
  H 2.046588 1.142763 2.331268
  H 5.238803 0.181993 -0.434171
  H 4.413416 0.613843 -3.332827
 16
 66.611735
  H 1.738794 -0.754138 0.242795
  C 2.784454 -0.445781 0.175729
  C 3.541204 -0.487714 1.392300
  C 2.134669 0.250261 2.822494
  H 2.763058 0.103545 3.679681
  C 3.247475 -0.114037 -1.042473
  H 2.539850 -0.049913 -1.864140
  C 4.605332 0.252452 -1.338719
  C 5.009853 0.663133 -2.538391
  H 6.038242 0.816713 -2.770059
  H 4.309789 0.237774 1.572147
  H 3.371048 -1.253118 2.126918
  H 1.379391 -0.458451 2.594443
  H 2.074180 1.218050 2.380632
  H 5.326684 0.179280 -0.527232
  H 4.330106 0.677218 -3.371626
 16
 82.143848
  H 1.793062 -0.797819 0.159413
  C 2.811777 -0.456286 0.118275
  C 3.551524 -0.578173 1.295036
  C 2.013149 0.272713 3.064797
  H 2.667437 0.110491 3.894322
  C 3.294802 -0.081773 -1.106858
  H 2.625009 -0.120621 -1.948205
  C 4.617408 0.379700 -1.391448
  C 5.043566 0.659278 -2.625861
  H 6.055949 0.919414 -2.831414
  H 4.442500 -0.003736 1.466620
  H 3.351981 -1.357060 1.970300
  H 1.208566 -0.423697 2.896787
  H 1.917172 1.265952 2.681598
  H 5.295419 0.511900 -0.551534
  H 4.389743 0.535552 -3.490454
 16
 94.882355
  H 1.835540 -0.769057 0.170387
  C 2.865965 -0.472596 0.098120
  C 3.608806 -0.576662 1.233133
  C 1.845332 0.265770 3.282986
  H 2.545815 0.093726 4.058337
  C 3.327765 -0.080061 -1.156343
  H 2.638558 -0.128917 -1.985479
  C 4.671058 0.329624 -1.471467
  C 5.067811 0.672618 -2.704225
  H 6.078003 0.928264 -2.929180
  H 4.469160 0.044641 1.391034
  H 3.389101 -1.292951 1.953656
  H 1.093005 -0.476119 3.072764
  H 1.750876 1.247641 2.866781
  H 5.375315 0.406936 -0.652110
  H 4.383416 0.651595 -3.533899
 16
 96.428038
  H 1.895493 -0.945145 0.077960
  C 2.908931 -0.561683 0.044722
  C 3.647694 -0.672648 1.181445
  C 1.763496 0.339404 3.418585
  H 2.446784 0.056915 4.202316
  C 3.358273 -0.122975 -1.196687
  H 2.685860 -0.206807 -2.020236
  C 4.659585 0.365180 -1.490335
  C 5.037211 0.767035 -2.718564
  H 6.015564 1.146172 -2.912962
  H 4.573072 -0.148990 1.319025
  H 3.311768 -1.289637 1.986651
  H 0.967910 -0.318005 3.146350
  H 1.788051 1.331806 3.027887
  H 5.364874 0.449537 -0.673551
  H 4.368410 0.670331 -3.575118
 16
 98.924289
  H 1.968296 -1.029341 -0.033010
  C 2.987197 -0.653171 -0.065506
  C 3.713982 -0.732959 1.076651
  C 1.563126 0.390380 3.766557
  H 2.276804 0.128479 4.514015
  C 3.415505 -0.143204 -1.304054
  H 2.712371 -0.173637 -2.126344
  C 4.700445 0.359175 -1.592691
  C 5.063485 0.818817 -2.808365
  H 6.051093 1.200951 -3.002231
  H 4.646072 -0.212188 1.200946
  H 3.370904 -1.324062 1.907763
  H 0.783053 -0.289425 3.517107
  H 1.562771 1.375102 3.352501
  H 5.430729 0.368728 -0.792635
  H 4.375540 0.813558 -3.633018
 16
 98.629898
  H 2.012686 -1.183825 -0.123099
  C 3.006490 -0.755642 -0.120165
  C 3.716071 -0.841257 1.027406
  C 1.510797 0.474718 3.891402
  H 2.240369 0.200116 4.620332
  C 3.428204 -0.180411 -1.337557
  H 2.719526 -0.176012 -2.158249
  C 4.694087 0.364765 -1.599119
  C 5.045103 0.898366 -2.789699
  H 6.006441 1.346033 -2.947853
  H 4.687390 -0.391635 1.142796
  H 3.320255 -1.361848 1.884260
  H 0.701511 -0.185776 3.671155
  H 1.558350 1.430945 3.423863
  H 5.414297 0.380416 -0.789869
  H 4.353257 0.928648 -3.614267
 16
 99.161290
  H 2.058436 -1.140664 -0.246027
  C 3.059639 -0.725250 -0.250432
  C 3.786685 -0.843094 0.885853
  C 1.259438 0.476570 4.364992
  H 2.026778 0.194413 5.050801
  C 3.476029 -0.148336 -1.464317
  H 2.762399 -0.133053 -2.277340
  C 4.751879 0.377565 -1.732132
  C 5.110823 0.892553 -2.928693
  H 6.092654 1.295510 -3.102208
  H 4.743180 -0.368766 1.013219
  H 3.417047 -1.412683 1.719656
  H 0.408323 -0.152807 4.229202
  H 1.311712 1.416864 3.862406
  H 5.470861 0.390972 -0.924874
  H 4.430244 0.895230 -3.763074
 16
 99.187714
  H 2.036529 -1.128248 -0.272376
  C 3.042372 -0.724098 -0.271296
  C 3.770685 -0.871387 0.860397
  C 1.220641 0.499988 4.480509
  H 1.990816 0.195047 5.153599
  C 3.463553 -0.133490 -1.476541
  H 2.747660 -0.095049 -2.286595
  C 4.745177 0.380660 -1.738498
  C 5.108930 0.908887 -2.927968
  H 6.095773 1.301580 -3.097028
  H 4.739926 -0.423910 0.989297
  H 3.388978 -1.437603 1.691204
  H 0.346516 -0.101193 4.363276
  H 1.297738 1.433952 3.969568
  H 5.463840 0.378098 -0.930716
  H 4.428903 0.927724 -3.763027
