 21
 0.000000
  H 1.448979 0.061746 0.041455
  C 2.526264 0.065383 -0.023048
  C 3.259127 -0.008563 1.287509
  C 2.321718 -0.076271 2.487370
  H 2.889374 -0.128491 3.412941
  C 3.136775 0.131415 -1.193262
  C 2.490589 0.207565 -2.542849
  C 0.965355 0.208287 -2.555572
  C 0.427889 0.288709 -3.980864
  H 4.220251 0.133458 -1.229449
  H 3.909017 0.866451 1.390091
  H 3.909023 -0.889565 1.291009
  H 1.684174 -0.955801 2.424640
  H 1.684178 0.804717 2.523977
  H 2.848087 -0.637121 -3.144177
  H 2.848091 1.114545 -3.045339
  H 0.591791 1.063298 -1.988754
  H 0.591798 -0.705046 -2.088544
  H 0.766605 1.200130 -4.469162
  H -0.660033 0.288507 -3.977292
  H 0.766601 -0.561991 -4.568586
 21
 12.539885
  H 1.469418 0.061080 0.053228
  C 2.544405 0.064965 -0.015643
  C 3.299810 -0.007554 1.269614
  C 2.253268 -0.082935 2.605435
  H 2.834633 -0.134451 3.518499
  C 3.177374 0.135783 -1.270684
  C 2.504979 0.210948 -2.602800
  C 0.980130 0.209462 -2.576410
  C 0.403826 0.289001 -3.986016
  H 4.258435 0.138035 -1.310566
  H 3.941024 0.867052 1.386103
  H 3.941027 -0.889707 1.286978
  H 1.627355 -0.964380 2.525346
  H 1.627348 0.801919 2.625009
  H 2.850572 -0.633304 -3.210921
  H 2.850573 1.118256 -3.112089
  H 0.623245 1.063084 -1.997047
  H 0.623249 -0.703908 -2.096757
  H 0.728789 1.200800 -4.483043
  H -0.683500 0.287193 -3.953963
  H 0.728784 -0.561090 -4.582453
 21
 37.549550
  H 1.518397 0.062849 0.021920
  C 2.587293 0.066387 -0.040763
  C 3.364408 -0.002963 1.188273
  C 2.146211 -0.088574 2.705534
  H 2.770085 -0.138229 3.585510
  C 3.211953 0.138153 -1.312547
  C 2.517234 0.212159 -2.624264
  C 0.988804 0.208878 -2.566137
  C 0.382504 0.287760 -3.964386
  H 4.291470 0.139726 -1.340306
  H 3.979423 0.879899 1.358275
  H 3.979442 -0.899367 1.257852
  H 1.556262 -0.983105 2.557034
  H 1.556306 0.816941 2.658607
  H 2.853933 -0.636313 -3.241788
  H 2.853902 1.124712 -3.142440
  H 0.645151 1.062572 -1.976626
  H 0.645167 -0.705649 -2.076424
  H 0.697192 1.199978 -4.468095
  H -0.703903 0.284752 -3.911170
  H 0.697163 -0.561941 -4.567436
 21
 64.289496
  H 1.545374 0.065721 -0.028823
  C 2.637697 0.070141 -0.107290
  C 3.449983 0.000866 1.120308
  C 2.037096 -0.096286 2.841932
  H 2.690022 -0.144289 3.692828
  C 3.230347 0.141438 -1.370866
  C 2.513076 0.214129 -2.659123
  C 1.005994 0.208943 -2.567236
  C 0.372798 0.286788 -3.946913
  H 4.314485 0.144310 -1.421820
  H 4.034913 0.897984 1.348178
  H 4.034943 -0.916234 1.245824
  H 1.482431 -0.992665 2.639941
  H 1.482425 0.817156 2.742050
  H 2.833181 -0.628331 -3.279249
  H 2.833210 1.121059 -3.180575
  H 0.672158 1.058605 -1.974889
  H 0.672192 -0.701903 -2.074269
  H 0.675307 1.198002 -4.456471
  H -0.709962 0.282424 -3.869792
  H 0.675322 -0.561340 -4.555741
 21
 86.921557
  H 1.626781 0.066570 -0.044826
  C 2.714236 0.072649 -0.152015
  C 3.537218 0.004451 1.056299
  C 1.931851 -0.104911 2.996081
  H 2.620506 -0.151886 3.827808
  C 3.266716 0.143118 -1.400201
  C 2.514545 0.216255 -2.696496
  C 0.999058 0.209811 -2.583057
  C 0.342629 0.287393 -3.958283
  H 4.359186 0.147859 -1.483646
  H 4.089087 0.902859 1.329843
  H 4.089171 -0.919133 1.226735
  H 1.398796 -1.016600 2.748514
  H 1.399006 0.828823 2.852660
  H 2.824594 -0.629378 -3.322997
  H 2.824535 1.127045 -3.223874
  H 0.671287 1.062734 -1.984477
  H 0.671338 -0.704953 -2.084324
  H 0.636536 1.199579 -4.473223
  H -0.739187 0.282121 -3.865540
  H 0.636544 -0.560960 -4.572467
 21
 102.943232
  H 1.711843 0.067585 -0.063131
  C 2.774173 0.075330 -0.199891
  C 3.593864 0.008746 0.978893
  C 1.823624 -0.112212 3.124971
  H 2.523861 -0.156664 3.911930
  C 3.289474 0.146475 -1.459569
  C 2.516834 0.218331 -2.733080
  C 1.012598 0.209878 -2.583734
  C 0.330896 0.285854 -3.930463
  H 4.365799 0.153515 -1.583595
  H 4.103021 0.890225 1.290227
  H 4.103140 -0.902062 1.188641
  H 1.329472 -1.000732 2.852043
  H 1.329637 0.801510 2.953655
  H 2.816840 -0.620236 -3.359859
  H 2.816598 1.122060 -3.261553
  H 0.704285 1.058139 -1.977170
  H 0.704259 -0.701262 -2.076413
  H 0.612024 1.196583 -4.449859
  H -0.745958 0.279149 -3.811808
  H 0.612027 -0.560645 -4.548951
 21
 112.797386
  H 1.768172 0.069774 -0.099810
  C 2.837354 0.078522 -0.255669
  C 3.677869 0.011634 0.929916
  C 1.726552 -0.120730 3.274748
  H 2.465877 -0.164487 4.051370
  C 3.322571 0.149712 -1.518163
  C 2.525191 0.220621 -2.774448
  C 1.014253 0.210443 -2.593002
  C 0.297478 0.286147 -3.934248
  H 4.383500 0.157910 -1.664256
  H 4.141266 0.905591 1.304214
  H 4.141604 -0.918634 1.201088
  H 1.253207 -1.027190 2.957064
  H 1.253160 0.815701 3.060905
  H 2.815596 -0.621771 -3.409086
  H 2.815640 1.128907 -3.310237
  H 0.717745 1.060063 -1.978481
  H 0.717634 -0.703074 -2.077842
  H 0.566403 1.198350 -4.460627
  H -0.780293 0.278198 -3.792667
  H 0.566367 -0.561161 -4.559976
 21
 119.516166
  H 1.812078 0.071149 -0.122987
  C 2.888795 0.081681 -0.311423
  C 3.727312 0.015595 0.862143
  C 1.646395 -0.131976 3.471846
  H 2.412430 -0.173539 4.211641
  C 3.339484 0.151823 -1.557716
  C 2.517374 0.222829 -2.816271
  C 1.019911 0.211688 -2.615990
  C 0.283109 0.287229 -3.954963
  H 4.403731 0.161722 -1.735350
  H 4.166284 0.909087 1.261244
  H 4.166662 -0.916852 1.158306
  H 1.186768 -1.035445 3.141784
  H 1.186466 0.802729 3.245318
  H 2.795099 -0.617298 -3.452344
  H 2.795449 1.129182 -3.353975
  H 0.728405 1.067973 -1.992600
  H 0.728428 -0.708803 -2.092990
  H 0.547754 1.210106 -4.490501
  H -0.797932 0.278504 -3.798662
  H 0.547522 -0.569369 -4.590630
 21
 122.770030
  H 1.864324 0.074670 -0.178846
  C 2.923011 0.085121 -0.368271
  C 3.766608 0.018366 0.815861
  C 1.568260 -0.142886 3.663501
  H 2.365608 -0.182718 4.371501
  C 3.361755 0.155402 -1.619140
  C 2.524422 0.225614 -2.864833
  C 1.007598 0.213417 -2.643328
  C 0.260393 0.287369 -3.955696
  H 4.429058 0.165723 -1.805836
  H 4.184118 0.922038 1.242788
  H 4.184358 -0.927456 1.138486
  H 1.123950 -1.048664 3.312547
  H 1.123773 0.796303 3.416713
  H 2.800431 -0.621446 -3.509624
  H 2.800667 1.139321 -3.410407
  H 0.725252 1.059560 -2.024246
  H 0.724830 -0.697042 -2.122852
  H 0.511488 1.189754 -4.482930
  H -0.803740 0.278081 -3.787095
  H 0.511213 -0.550404 -4.580889
 21
 124.293493
  H 1.868327 0.076689 -0.213915
  C 2.942296 0.087925 -0.417132
  C 3.786407 0.022018 0.753978
  C 1.516529 -0.155210 3.878169
  H 2.350558 -0.192950 4.550645
  C 3.368515 0.158117 -1.667727
  C 2.525045 0.227402 -2.897377
  C 1.016280 0.214602 -2.663018
  C 0.246506 0.288987 -3.984452
  H 4.437913 0.168932 -1.864088
  H 4.177791 0.913291 1.193385
  H 4.178270 -0.912781 1.090279
  H 1.080687 -1.060013 3.518415
  H 1.080148 0.784161 3.622483
  H 2.794948 -0.613992 -3.540102
  H 2.795170 1.134959 -3.441489
  H 0.739223 1.060621 -2.040807
  H 0.738337 -0.695982 -2.139300
  H 0.498075 1.213888 -4.527943
  H -0.838057 0.279006 -3.800598
  H 0.497584 -0.569510 -4.627967
 21
 124.496558
  H 1.891151 0.079790 -0.256274
  C 2.957544 0.090871 -0.463517
  C 3.810572 0.025145 0.705440
  C 1.476603 -0.167749 4.094519
  H 2.323929 -0.203123 4.727985
  C 3.374999 0.161200 -1.724058
  C 2.521997 0.229843 -2.943854
  C 1.010376 0.216568 -2.694353
  C 0.229485 0.290329 -4.006722
  H 4.443852 0.172076 -1.926783
  H 4.169684 0.920835 1.175333
  H 4.170938 -0.917489 1.071187
  H 1.046134 -1.076016 3.725642
  H 1.045181 0.775910 3.830241
  H 2.787297 -0.613335 -3.590017
  H 2.787957 1.139029 -3.491655
  H 0.739518 1.063186 -2.069650
  H 0.738372 -0.695165 -2.167349
  H 0.472583 1.204386 -4.546593
  H -0.842641 0.280181 -3.816089
  H 0.471796 -0.558139 -4.645144
 21
 124.604463
  H 1.883675 0.083858 -0.297517
  C 2.953627 0.094165 -0.508066
  C 3.805433 0.029033 0.657303
  C 1.468686 -0.183560 4.358734
  H 2.345353 -0.216771 4.966651
  C 3.367309 0.163225 -1.767199
  C 2.508360 0.232002 -2.994458
  C 1.004200 0.220002 -2.746576
  C 0.223510 0.293530 -4.060350
  H 4.430535 0.173269 -1.969778
  H 4.137295 0.925055 1.148874
  H 4.140868 -0.915876 1.043623
  H 1.035194 -1.088770 3.998558
  H 1.032955 0.754988 4.102916
  H 2.772564 -0.611331 -3.639989
  H 2.774267 1.139709 -3.542554
  H 0.733599 1.068716 -2.120989
  H 0.731009 -0.693577 -2.217182
  H 0.466648 1.205029 -4.599805
  H -0.843336 0.284322 -3.871304
  H 0.464590 -0.553483 -4.696838
 21
 125.020465
  H 1.851044 0.086610 -0.349345
  C 2.927578 0.096963 -0.557557
  C 3.767681 0.032633 0.613844
  C 1.488997 -0.202647 4.661946
  H 2.396574 -0.232401 5.233339
  C 3.346796 0.164881 -1.805980
  C 2.496383 0.234364 -3.045934
  C 0.990873 0.223917 -2.808888
  C 0.224647 0.297790 -4.121033
  H 4.412723 0.174120 -2.003427
  H 4.085366 0.925397 1.116925
  H 4.092682 -0.908782 1.010424
  H 1.051888 -1.104560 4.312790
  H 1.044386 0.734893 4.415098
  H 2.766091 -0.616181 -3.695859
  H 2.767564 1.146203 -3.595872
  H 0.717137 1.075792 -2.182450
  H 0.713085 -0.692939 -2.277973
  H 0.472114 1.208030 -4.658315
  H -0.844898 0.289831 -3.939672
  H 0.468870 -0.549367 -4.755571
