 20
 0.000000
  C -0.726903 -2.636147 -3.072013
  C -0.284884 -1.535932 -2.113795
  C 0.200146 -0.309782 -2.891909
  C -1.407630 -1.150493 -1.170600
  O -2.536165 -1.586995 -1.289920
  C -1.068521 -0.194153 -0.058373
  H 0.094759 -2.941262 -3.714825
  H -1.545606 -2.299587 -3.703877
  H -1.071778 -3.511591 -2.525099
  H 0.531600 -1.928540 -1.501141
  H -0.613804 0.135857 -3.458247
  H 0.986083 -0.587141 -3.587863
  H 0.596204 0.455929 -2.230793
  H -0.000030 -0.007723 -0.011753
  H -1.384738 -0.622409 0.888712
  H -1.588136 0.744009 -0.227121
  O 2.969697 0.157686 0.042820
  H 2.008102 -0.011249 -0.008390
  H 3.477185 -0.679076 0.091357
  H 3.188960 0.753283 0.790363
 20
 0.741040
  C -0.721345 -2.624006 -3.078657
  C -0.244542 -1.540514 -2.112993
  C 0.229560 -0.305105 -2.884930
  C -1.349917 -1.144702 -1.143681
  O -2.490416 -1.551608 -1.248951
  C -0.955202 -0.206728 -0.039966
  H 0.083263 -2.925829 -3.744740
  H -1.551947 -2.258810 -3.679787
  H -1.071035 -3.498070 -2.532559
  H 0.579702 -1.946615 -1.523948
  H -0.603308 0.120401 -3.440752
  H 0.994337 -0.598312 -3.599988
  H 0.631687 0.467737 -2.236937
  H 0.122279 -0.042844 -0.010740
  H -1.293677 -0.610315 0.906168
  H -1.466882 0.735823 -0.193451
  O 2.794443 0.109976 0.002224
  H 1.821834 -0.053466 -0.017266
  H 3.292709 -0.710345 0.205060
  H 3.020088 0.830246 0.626765
 20
 3.182448
  C -0.736964 -2.614477 -3.081288
  C -0.219071 -1.545535 -2.112600
  C 0.274363 -0.307139 -2.890969
  C -1.300845 -1.149944 -1.121556
  O -2.445272 -1.540885 -1.218575
  C -0.866407 -0.218880 -0.012464
  H 0.049397 -2.927919 -3.766536
  H -1.570938 -2.229164 -3.664962
  H -1.097139 -3.492134 -2.541786
  H 0.611253 -1.967860 -1.535920
  H -0.550899 0.142012 -3.446410
  H 1.031911 -0.609652 -3.611724
  H 0.696103 0.460580 -2.245016
  H 0.211683 -0.067761 -0.000197
  H -1.207555 -0.620382 0.953898
  H -1.372152 0.741028 -0.166322
  O 2.623370 0.095487 -0.021884
  H 1.651665 -0.071633 -0.019826
  H 3.147143 -0.698598 0.224185
  H 2.878679 0.873668 0.527097
 20
 12.520727
  C -0.023084 1.540477 -1.881368
  C 0.098003 0.039605 -1.614591
  C 0.795838 -0.155357 -0.243758
  C -1.272357 -0.611907 -1.626183
  O -2.304340 0.031014 -1.652860
  C -1.294307 -2.123789 -1.561550
  H 0.958198 2.006526 -1.894956
  H -0.608786 2.035256 -1.110234
  H -0.510029 1.709466 -2.845078
  H 0.687212 -0.413509 -2.420453
  H 0.111857 0.185357 0.531530
  H 1.749851 0.358105 -0.227691
  H 0.954924 -1.215495 -0.035964
  H -0.273357 -2.544924 -1.655762
  H -1.921834 -2.456214 -2.377931
  H -1.818234 -2.370631 -0.603323
  O 1.797438 -3.382962 -2.015242
  H 0.861911 -2.943075 -1.917840
  H 2.016363 -3.113267 -2.957279
  H 1.785546 -4.316504 -1.654310
 20
 13.556303
  C 1.530873 -2.877532 -1.898382
  C 0.663167 -1.634630 -1.702919
  C -0.006716 -1.246824 -3.032821
  C -0.402081 -1.886134 -0.647342
  O -0.626922 -2.988839 -0.194349
  C -1.209951 -0.686690 -0.202715
  H 2.303026 -2.694364 -2.641175
  H 0.924168 -3.717029 -2.232997
  H 2.007675 -3.165820 -0.961859
  H 1.301661 -0.816053 -1.358349
  H -0.702175 -2.030738 -3.332669
  H 0.752707 -1.137995 -3.802655
  H -0.571231 -0.320312 -2.962023
  H -0.808593 0.276963 -0.632658
  H -1.186244 -0.647467 0.891079
  H -2.245140 -0.867261 -0.505503
  O 0.074043 2.075870 -1.352154
  H -0.299463 1.149524 -0.966945
  H 0.980931 2.295311 -0.724567
  H -0.745913 2.849977 -1.339392
 20
 20.531612
  C -0.258037 -1.895943 -3.748803
  C -0.055179 -1.342489 -2.344949
  C 1.136974 -2.027307 -1.665305
  C 0.195482 0.152140 -2.390024
  O 0.412781 0.756450 -3.424274
  C 0.184469 0.871417 -1.064902
  H -0.451186 -2.962064 -3.715255
  H 0.623255 -1.725393 -4.358009
  H -1.094766 -1.406094 -4.239327
  H -0.966651 -1.524456 -1.766389
  H 2.049315 -1.799770 -2.206178
  H 0.990695 -3.099873 -1.691664
  H 1.263726 -1.724235 -0.635906
  H -0.170554 0.147806 -0.235463
  H -0.490304 1.725205 -1.124312
  H 1.184837 1.243223 -0.857192
  O -0.700682 -1.011322 1.402414
  H -0.467980 -0.232909 0.580643
  H -1.640465 -1.276456 1.356198
  H -0.493237 -0.586884 2.260809
 20
 31.773375
  C 0.456489 -2.448056 -3.405668
  C 0.202108 -1.467222 -2.266082
  C -0.741355 -0.343925 -2.718828
  C -0.405266 -2.175342 -1.072470
  O -0.817713 -3.316297 -1.113956
  C -0.497835 -1.390185 0.213051
  H 0.908205 -1.940762 -4.253474
  H -0.475553 -2.904932 -3.732819
  H 1.119453 -3.248122 -3.084445
  H 1.158619 -1.039555 -1.961742
  H -1.716177 -0.757439 -2.967406
  H -0.337248 0.120718 -3.613229
  H -0.873976 0.422097 -1.963800
  H 0.073205 -0.335921 0.110656
  H -0.050967 -1.958209 1.024325
  H -1.544072 -1.211118 0.452236
  O 0.960711 1.566728 0.062145
  H 0.452584 0.418508 0.251199
  H 1.923419 1.502837 -0.037204
  H 0.730559 2.123254 0.836548
 20
 45.821261
  C 0.248502 -2.509287 -3.380592
  C 0.112426 -1.486261 -2.261931
  C -0.633301 -0.240504 -2.755119
  C -0.630976 -2.076211 -1.086215
  O -1.210734 -3.141562 -1.124345
  C -0.649057 -1.277931 0.189638
  H 0.796467 -2.089962 -4.215551
  H -0.728803 -2.822085 -3.731532
  H 0.770893 -3.394351 -3.029899
  H 1.115370 -1.202665 -1.929576
  H -1.648662 -0.502738 -3.031180
  H -0.138017 0.143171 -3.637402
  H -0.669239 0.544962 -2.014597
  H 0.113501 -0.257815 0.112780
  H -0.314739 -1.891778 1.024462
  H -1.661837 -0.930086 0.393348
  O 1.304970 1.524926 0.068633
  H 0.545483 0.372245 0.248517
  H 2.250905 1.317261 0.018159
  H 1.132009 2.120644 0.820686
 20
 61.592068
  C 0.061413 -2.555870 -3.362050
  C 0.023931 -1.497150 -2.263841
  C -0.551626 -0.176284 -2.797117
  C -0.819000 -1.970561 -1.105031
  O -1.527478 -2.951779 -1.131665
  C -0.783003 -1.183234 0.171056
  H 0.681828 -2.224810 -4.189839
  H -0.940577 -2.753260 -3.737941
  H 0.460527 -3.493020 -2.980336
  H 1.041454 -1.333230 -1.900677
  H -1.585967 -0.318788 -3.102560
  H 0.015618 0.129806 -3.671293
  H -0.513338 0.622991 -2.065810
  H 0.165464 -0.201593 0.118417
  H -0.545176 -1.815581 1.018526
  H -1.734119 -0.693743 0.349362
  O 1.654342 1.501557 0.083625
  H 0.621623 0.329252 0.271590
  H 2.567212 1.176452 0.107467
  H 1.515139 2.141903 0.790448
 20
 76.311279
  C -0.135172 -2.601954 -3.355982
  C -0.063305 -1.519923 -2.281947
  C -0.478188 -0.156197 -2.852162
  C -0.982074 -1.865354 -1.144429
  O -1.799918 -2.753246 -1.149241
  C -0.914778 -1.098532 0.133821
  H 0.533170 -2.368072 -4.177022
  H -1.147571 -2.684413 -3.744105
  H 0.142918 -3.568668 -2.946340
  H 0.959575 -1.468284 -1.899705
  H -1.515284 -0.189925 -3.174337
  H 0.133149 0.065170 -3.719925
  H -0.364044 0.647498 -2.137223
  H 0.215058 -0.150354 0.126936
  H -0.761550 -1.742656 0.998217
  H -1.797177 -0.487392 0.294054
  O 2.050608 1.525872 0.159190
  H 0.688706 0.306911 0.313614
  H 2.913930 1.107733 0.253982
  H 1.939972 2.199788 0.835849
 20
 83.728342
  C -0.351810 -2.632598 -3.384357
  C -0.180468 -1.582656 -2.290040
  C -0.344281 -0.160388 -2.847974
  C -1.148316 -1.802850 -1.180302
  O -2.085620 -2.569868 -1.155241
  C -1.107525 -1.065081 0.099063
  H 0.379004 -2.481164 -4.169841
  H -1.345051 -2.574318 -3.820695
  H -0.225704 -3.634056 -2.980168
  H 0.834140 -1.672827 -1.880953
  H -1.362359 -0.011314 -3.198582
  H 0.323130 -0.038120 -3.695081
  H -0.111308 0.601893 -2.112077
  H 0.210472 -0.128480 0.159506
  H -1.027085 -1.707357 0.972316
  H -1.928248 -0.364143 0.213249
  O 2.505705 1.618879 0.182449
  H 0.711598 0.295147 0.414207
  H 3.335525 1.150385 0.317114
  H 2.437720 2.329367 0.834825
 20
 90.207712
  C -0.552320 -2.667029 -3.384967
  C -0.267971 -1.613720 -2.316924
  C -0.290420 -0.196023 -2.916749
  C -1.262967 -1.684733 -1.233830
  O -2.301043 -2.310902 -1.160468
  C -1.249685 -0.965148 0.039764
  H 0.197020 -2.626802 -4.162900
  H -1.527921 -2.504654 -3.835043
  H -0.547753 -3.662466 -2.953024
  H 0.724470 -1.794781 -1.887501
  H -1.287148 0.041149 -3.285928
  H 0.397358 -0.163173 -3.757618
  H 0.011724 0.558321 -2.198514
  H 0.309107 -0.079301 0.203226
  H -1.265854 -1.607851 0.919098
  H -2.002372 -0.181037 0.109470
  O 2.956786 1.622019 0.309369
  H 0.821500 0.268940 0.535966
  H 3.749532 1.098190 0.448634
  H 2.930355 2.315173 0.973736
 20
 90.554632
  C -0.798616 -2.711325 -3.419600
  C -0.369989 -1.675841 -2.382548
  C -0.225106 -0.265918 -2.996477
  C -1.333890 -1.579616 -1.301361
  O -2.470638 -1.986215 -1.099032
  C -1.388996 -0.876747 -0.043714
  H -0.044815 -2.799328 -4.191435
  H -1.737514 -2.425319 -3.885443
  H -0.936867 -3.684895 -2.959255
  H 0.596529 -1.961613 -1.951169
  H -1.184699 0.091513 -3.356925
  H 0.450756 -0.331943 -3.841274
  H 0.179308 0.442336 -2.284189
  H 0.437557 -0.051076 0.264661
  H -1.475625 -1.495005 0.847317
  H -2.053625 -0.014176 -0.008156
  O 3.434700 1.624155 0.507060
  H 0.951622 0.237259 0.678327
  H 4.203032 1.073370 0.678295
  H 3.425641 2.319986 1.175343
