 18
 0.000000
  C 0.901676 0.055725 0.201765
  C 2.401660 0.060494 0.088810
  C 3.251589 -0.008096 1.343472
  C 2.523822 -0.091727 2.679062
  H 3.251209 -0.135426 3.484055
  C 3.012509 0.124744 -1.089043
  C 2.364148 0.200617 -2.433115
  H 1.280594 0.200374 -2.394069
  H 4.095027 0.124736 -1.124987
  H 0.570715 0.010804 1.233717
  H 0.476328 -0.805484 -0.311850
  H 0.481884 0.961123 -0.235617
  H 3.897383 0.874998 1.364130
  H 3.908237 -0.879387 1.260435
  H 1.904613 -0.983990 2.733823
  H 1.894509 0.780487 2.839439
  H 2.689413 -0.645018 -3.043431
  H 2.692860 1.107394 -2.946027
 18
 6.083738
  C 0.915116 0.116940 0.218513
  C 2.368144 0.061406 0.096209
  C 3.235675 -0.003110 1.330502
  C 2.514031 -0.105958 2.665660
  H 3.247782 -0.146681 3.467926
  C 2.985886 0.109949 -1.068067
  C 2.346596 0.191158 -2.416857
  H 1.265929 0.213352 -2.358460
  H 4.066218 0.082868 -1.083077
  H 0.538481 0.041259 1.220292
  H 0.744004 -0.782845 -0.352218
  H 0.475079 0.974486 -0.251257
  H 3.869910 0.887474 1.349136
  H 3.904656 -0.862121 1.232477
  H 1.909153 -1.008026 2.718420
  H 1.877973 0.758516 2.838575
  H 2.646022 -0.663401 -3.022670
  H 2.683802 1.087434 -2.935061
 18
 17.985041
  C 0.884999 0.155180 0.231337
  C 2.339323 0.076894 0.114133
  C 3.235660 0.013517 1.344590
  C 2.522861 -0.123070 2.683146
  H 3.257168 -0.163800 3.481610
  C 2.975907 0.092587 -1.082700
  C 2.341692 0.190859 -2.433830
  H 1.258127 0.269354 -2.381998
  H 4.050870 -0.002822 -1.096218
  H 0.470217 0.034927 1.219943
  H 0.945848 -0.743222 -0.337773
  H 0.418608 0.982232 -0.295302
  H 3.848221 0.921317 1.369684
  H 3.925807 -0.828984 1.229761
  H 1.933776 -1.036169 2.722675
  H 1.873220 0.728134 2.870179
  H 2.598877 -0.687948 -3.033239
  H 2.724740 1.069226 -2.962356
 18
 32.456270
  C 0.869017 0.192691 0.242128
  C 2.326298 0.081966 0.107336
  C 3.221620 0.011418 1.341961
  C 2.517734 -0.139199 2.687509
  H 3.256818 -0.183437 3.480096
  C 2.974761 0.086302 -1.084444
  C 2.338552 0.184877 -2.445095
  H 1.256215 0.268050 -2.396503
  H 4.053116 -0.015588 -1.096868
  H 0.452823 0.068744 1.226160
  H 1.105819 -0.706910 -0.283228
  H 0.391492 0.972177 -0.326254
  H 3.827263 0.926399 1.365212
  H 3.918115 -0.825733 1.216953
  H 1.936688 -1.048634 2.725821
  H 1.872378 0.700685 2.886507
  H 2.588548 -0.694019 -3.040842
  H 2.722584 1.057225 -2.975155
 18
 44.400614
  C 0.868921 0.224048 0.255095
  C 2.327435 0.078155 0.100167
  C 3.218797 0.009487 1.333797
  C 2.508057 -0.157347 2.673779
  H 3.249808 -0.203676 3.472953
  C 2.978459 0.075941 -1.099246
  C 2.338103 0.191658 -2.443623
  H 1.253714 0.283379 -2.376131
  H 4.048936 -0.043068 -1.107778
  H 0.466382 0.179553 1.247394
  H 1.243690 -0.724193 -0.166013
  H 0.356205 0.906812 -0.404531
  H 3.806550 0.929372 1.364689
  H 3.926429 -0.812470 1.211369
  H 1.928494 -1.076659 2.701381
  H 1.851832 0.682203 2.878782
  H 2.572353 -0.683623 -3.050167
  H 2.721448 1.063137 -2.972352
 18
 53.051511
  C 0.859619 0.261190 0.268480
  C 2.323254 0.087186 0.097695
  C 3.210933 0.008436 1.334556
  C 2.507853 -0.180356 2.666802
  H 3.251045 -0.244611 3.458799
  C 2.981414 0.078685 -1.107380
  C 2.340737 0.191343 -2.457046
  H 1.258600 0.275800 -2.389781
  H 4.054252 -0.045561 -1.110112
  H 0.468480 0.307387 1.258326
  H 1.345385 -0.715048 -0.035871
  H 0.315745 0.816358 -0.468412
  H 3.790124 0.929937 1.376376
  H 3.921998 -0.807534 1.202279
  H 1.924620 -1.096713 2.678506
  H 1.857011 0.656713 2.892185
  H 2.577780 -0.680932 -3.064461
  H 2.716842 1.064276 -2.987644
 18
 59.476860
  C 0.862529 0.297199 0.283002
  C 2.321605 0.089502 0.096010
  C 3.207903 0.013110 1.327158
  C 2.500385 -0.201355 2.657128
  H 3.244262 -0.285208 3.450335
  C 2.980879 0.075818 -1.117407
  C 2.344265 0.189037 -2.461243
  H 1.265729 0.267466 -2.394872
  H 4.056714 -0.055431 -1.118462
  H 0.479645 0.420707 1.274456
  H 1.429586 -0.708680 0.068049
  H 0.289888 0.731537 -0.506795
  H 3.777487 0.941420 1.380153
  H 3.929850 -0.794950 1.185278
  H 1.910998 -1.118791 2.648813
  H 1.849994 0.636343 2.901648
  H 2.584475 -0.680980 -3.072270
  H 2.716478 1.066618 -2.990480
 18
 64.881781
  C 0.864982 0.335414 0.285286
  C 2.316808 0.087839 0.095948
  C 3.208122 0.018965 1.330754
  C 2.502224 -0.219385 2.657756
  H 3.245968 -0.314628 3.449425
  C 2.980642 0.070663 -1.119614
  C 2.346510 0.184176 -2.466552
  H 1.264615 0.264826 -2.402016
  H 4.050171 -0.072628 -1.116598
  H 0.478586 0.484474 1.269265
  H 1.492624 -0.703955 0.114997
  H 0.274519 0.691003 -0.534700
  H 3.764857 0.957595 1.392428
  H 3.942959 -0.779670 1.180675
  H 1.914928 -1.137018 2.634365
  H 1.850003 0.611236 2.916774
  H 2.586535 -0.687400 -3.080321
  H 2.720324 1.062238 -2.995580
 18
 69.337602
  C 0.868135 0.379834 0.286522
  C 2.311593 0.080477 0.099418
  C 3.208094 0.024699 1.332346
  C 2.506346 -0.237066 2.659492
  H 3.248410 -0.335990 3.445012
  C 2.983300 0.062881 -1.122200
  C 2.350672 0.175619 -2.469453
  H 1.267057 0.255663 -2.405381
  H 4.051393 -0.089532 -1.114888
  H 0.473044 0.530014 1.266280
  H 1.536372 -0.707694 0.137665
  H 0.267150 0.676743 -0.548537
  H 3.748198 0.973585 1.398585
  H 3.955547 -0.758153 1.174831
  H 1.925766 -1.160498 2.625551
  H 1.847109 0.584937 2.931163
  H 2.590920 -0.693158 -3.083865
  H 2.723638 1.054638 -2.997966
 18
 72.678638
  C 0.877426 0.439176 0.286155
  C 2.305521 0.073733 0.103431
  C 3.206906 0.033512 1.335561
  C 2.510561 -0.258652 2.660454
  H 3.256691 -0.360854 3.446742
  C 2.985896 0.055102 -1.124893
  C 2.353680 0.160415 -2.470782
  H 1.270459 0.233855 -2.405693
  H 4.050717 -0.103113 -1.113007
  H 0.466873 0.565021 1.263522
  H 1.571906 -0.724774 0.141732
  H 0.269352 0.695183 -0.557120
  H 3.721365 0.994787 1.409883
  H 3.973090 -0.729204 1.170440
  H 1.943665 -1.186148 2.611955
  H 1.839776 0.549244 2.945197
  H 2.598913 -0.707547 -3.084577
  H 2.720767 1.043450 -3.002745
 18
 74.662767
  C 0.892919 0.507812 0.286677
  C 2.298597 0.066853 0.108297
  C 3.205161 0.043335 1.339877
  C 2.514974 -0.279028 2.661695
  H 3.262981 -0.377728 3.447625
  C 2.987989 0.044940 -1.126628
  C 2.355685 0.143618 -2.471922
  H 1.271913 0.208738 -2.405635
  H 4.050129 -0.120828 -1.110191
  H 0.461526 0.587054 1.260957
  H 1.606952 -0.757741 0.135325
  H 0.278269 0.731108 -0.561393
  H 3.693403 1.017850 1.420658
  H 3.989131 -0.698159 1.167716
  H 1.962191 -1.219481 2.600349
  H 1.832912 0.509128 2.955339
  H 2.608391 -0.721424 -3.086805
  H 2.714566 1.030995 -3.005280
 18
 76.253173
  C 0.906838 0.553181 0.287467
  C 2.296653 0.058234 0.111498
  C 3.205032 0.043727 1.340949
  C 2.517213 -0.298739 2.659364
  H 3.262889 -0.396800 3.443282
  C 2.988383 0.037268 -1.127188
  C 2.356481 0.132331 -2.468051
  H 1.273605 0.187717 -2.399900
  H 4.051084 -0.127628 -1.112372
  H 0.464480 0.598766 1.258147
  H 1.646127 -0.782497 0.128467
  H 0.289845 0.758329 -0.565567
  H 3.677114 1.025853 1.427389
  H 3.999578 -0.683998 1.163418
  H 1.980127 -1.234474 2.588284
  H 1.816905 0.488728 2.963380
  H 2.618291 -0.734708 -3.089182
  H 2.704009 1.015388 -2.996049
 18
 76.004406
  C 0.933076 0.621109 0.284886
  C 2.282900 0.047268 0.118098
  C 3.197759 0.046938 1.342986
  C 2.522190 -0.316848 2.660435
  H 3.274474 -0.406899 3.443829
  C 2.987649 0.023456 -1.126955
  C 2.356048 0.113465 -2.465849
  H 1.272711 0.153584 -2.395951
  H 4.049563 -0.141632 -1.105027
  H 0.462773 0.613088 1.246335
  H 1.682137 -0.836507 0.116407
  H 0.315493 0.806642 -0.573699
  H 3.650591 1.043071 1.431710
  H 4.003511 -0.662267 1.158686
  H 1.999131 -1.270231 2.583032
  H 1.813364 0.447914 2.968480
  H 2.630402 -0.742271 -3.087788
  H 2.691996 1.010355 -2.993808
 18
 75.595841
  C 0.957464 0.681772 0.284738
  C 2.273737 0.037729 0.123030
  C 3.192305 0.048250 1.343783
  C 2.524412 -0.335981 2.661351
  H 3.278680 -0.419371 3.443801
  C 2.988216 0.009871 -1.128385
  C 2.355691 0.095031 -2.463962
  H 1.270958 0.118937 -2.390516
  H 4.051126 -0.152006 -1.104881
  H 0.465064 0.618693 1.235363
  H 1.729745 -0.888214 0.103519
  H 0.342746 0.861251 -0.578197
  H 3.625148 1.043296 1.434087
  H 4.013316 -0.651599 1.152345
  H 2.015983 -1.298870 2.576440
  H 1.804288 0.412774 2.974741
  H 2.643465 -0.751885 -3.089756
  H 2.676055 0.999105 -2.988697
