15

C -3.511533 0.981505 -0.128572
C -2.066985 0.588964 -0.028806
C -1.64866 -0.472424 0.639736
C -0.236855 -0.940834 0.798491
C 0.812862 -0.077311 0.10676
H 1.2358894789315018 -0.23827318219755456 0.17700524268590792
H -4.111524 0.156376 -0.515268
H -3.637879 1.843049 -0.778846
H -3.905714 1.236287 0.857466
H -1.363804 1.231141 -0.539821
H -2.379749 -1.098207 1.140499
H -0.011186 -0.993814 1.870669
H -0.173033 -1.963924 0.407299
H 0.609622 -0.055783 -0.96721
H 0.752025 0.944513 0.489967
