 32
 0.000000
  C 0.950143 0.144471 0.410089
  C 2.426505 0.138948 0.396446
  C 3.224704 0.604818 1.556184
  C 2.464586 1.098462 2.784862
  C 3.438693 1.535892 3.874351
  C 3.036559 -0.327353 -0.764451
  C 4.413311 -0.408344 -0.967067
  C 5.105469 -0.857666 -2.087272
  C 4.617433 -1.381514 -3.392759
  C 3.128625 -1.504474 -3.699306
  C 2.934785 -2.068529 -5.104891
  O 6.422702 -0.847627 -2.062849
  H 0.531187 0.516956 1.336984
  H 0.574387 -0.865348 0.236324
  H 0.574314 0.753264 -0.414092
  H 3.882893 1.412994 1.217299
  H 3.882752 -0.213286 1.870614
  H 1.828896 0.305429 3.181785
  H 1.829194 1.945920 2.522885
  H 4.073796 0.708963 4.184244
  H 2.895905 1.887005 4.748331
  H 4.074119 2.347211 3.526193
  H 2.375357 -0.643774 -1.551902
  H 5.035818 -0.077782 -0.144299
  H 5.083948 -2.367182 -3.514534
  H 5.084181 -0.753590 -4.162117
  H 2.648468 -0.527067 -3.652446
  H 2.648488 -2.178389 -2.989859
  H 3.384062 -1.418024 -5.851553
  H 1.875651 -2.159676 -5.332009
  H 3.384170 -3.054692 -5.194752
  H 6.799618 -0.512767 -1.227314
 32
 1.545903
  C 0.950636 0.300742 0.371006
  C 2.423480 0.201255 0.378920
  C 3.220987 0.579301 1.563724
  C 2.464706 1.079942 2.801255
  C 3.442378 1.419194 3.919652
  C 3.026442 -0.270568 -0.783563
  C 4.396329 -0.413342 -0.973242
  C 5.093835 -0.775061 -2.123056
  C 4.617367 -1.316531 -3.415174
  C 3.134855 -1.584057 -3.681089
  C 2.962838 -2.212187 -5.066647
  O 6.397420 -0.599171 -2.147902
  H 0.542724 0.679334 1.292677
  H 0.515321 -0.680118 0.167476
  H 0.628023 0.941461 -0.450634
  H 3.938598 1.357785 1.267146
  H 3.828013 -0.283967 1.863388
  H 1.778731 0.314256 3.157359
  H 1.889897 1.973571 2.556077
  H 4.025075 0.540595 4.211130
  H 2.908290 1.771871 4.793268
  H 4.132065 2.204428 3.609746
  H 2.367726 -0.527505 -1.596669
  H 5.006702 -0.126049 -0.130983
  H 5.168953 -2.239265 -3.546332
  H 5.009723 -0.657405 -4.193154
  H 2.551767 -0.657468 -3.665271
  H 2.724333 -2.282380 -2.942325
  H 3.338310 -1.553444 -5.838984
  H 1.904731 -2.401504 -5.266515
  H 3.482632 -3.157380 -5.129452
  H 6.836682 -0.403310 -1.294422
 32
 11.362889
  C 0.958121 0.436890 0.308015
  C 2.429201 0.286997 0.350316
  C 3.211666 0.555041 1.569392
  C 2.458919 1.003982 2.807261
  C 3.421311 1.248400 3.966810
  C 3.036640 -0.108722 -0.836034
  C 4.408315 -0.302652 -1.040503
  C 5.078086 -0.657807 -2.204737
  C 4.642632 -1.281296 -3.477742
  C 3.185901 -1.672731 -3.623048
  C 2.937309 -2.383642 -4.974303
  O 6.354838 -0.325772 -2.219333
  H 0.554580 0.809750 1.243670
  H 0.479856 -0.493488 0.036327
  H 0.695551 1.174213 -0.460180
  H 3.967197 1.304675 1.340426
  H 3.779188 -0.342106 1.840306
  H 1.745679 0.242863 3.112617
  H 1.910187 1.929992 2.624125
  H 3.968647 0.341568 4.222323
  H 2.874309 1.562633 4.845528
  H 4.132100 2.036330 3.723499
  H 2.365386 -0.265317 -1.676119
  H 4.923168 -0.045416 -0.137230
  H 5.304787 -2.158536 -3.583431
  H 4.975256 -0.629406 -4.273359
  H 2.556506 -0.766879 -3.560367
  H 2.862095 -2.355996 -2.842477
  H 3.216301 -1.730750 -5.828581
  H 1.890384 -2.647316 -5.074588
  H 3.508569 -3.302057 -5.030070
  H 6.991706 -0.259323 -1.488812
 32
 13.227129
  C 0.942577 0.694795 0.273201
  C 2.402376 0.441208 0.292746
  C 3.202204 0.529607 1.540153
  C 2.472114 0.931439 2.821445
  C 3.442524 0.979969 3.999077
  C 2.981076 0.116425 -0.929102
  C 4.335541 -0.194253 -1.111482
  C 5.069673 -0.492613 -2.256455
  C 4.645493 -1.224986 -3.474597
  C 3.211640 -1.783787 -3.547967
  C 3.029640 -2.599999 -4.820085
  O 6.284860 0.021048 -2.370969
  H 0.537557 0.939424 1.250080
  H 0.410534 -0.176133 -0.116691
  H 0.712762 1.516715 -0.400691
  H 4.026320 1.236515 1.384750
  H 3.682505 -0.445670 1.718629
  H 1.685349 0.205415 3.049517
  H 2.011571 1.913113 2.699234
  H 3.900663 0.003719 4.157708
  H 2.919951 1.260676 4.913833
  H 4.238544 1.705012 3.822368
  H 2.336176 0.132360 -1.796461
  H 4.898439 -0.019045 -0.201533
  H 5.349363 -2.073533 -3.535387
  H 4.856925 -0.617690 -4.370008
  H 2.486380 -0.969474 -3.557152
  H 2.989332 -2.427569 -2.699521
  H 3.210639 -1.977857 -5.697521
  H 2.005257 -2.955821 -4.894847
  H 3.709087 -3.447524 -4.852057
  H 6.972249 -0.034683 -1.681531
 32
 18.409783
  C 0.969256 0.844246 0.263367
  C 2.408014 0.500988 0.275180
  C 3.192911 0.506185 1.516084
  C 2.453365 0.858138 2.817178
  C 3.416663 0.840229 3.982861
  C 2.990124 0.195514 -0.951103
  C 4.310650 -0.176037 -1.134718
  C 5.052553 -0.426557 -2.294531
  C 4.661470 -1.208310 -3.486103
  C 3.273971 -1.847079 -3.462061
  C 3.033747 -2.649257 -4.733335
  O 6.194790 0.258144 -2.410316
  H 0.578344 1.096005 1.229742
  H 0.382926 -0.014067 -0.135678
  H 0.786434 1.673717 -0.433735
  H 4.010122 1.214945 1.386076
  H 3.662067 -0.484022 1.650137
  H 1.646110 0.123826 3.010768
  H 2.012867 1.856388 2.746621
  H 3.851967 -0.146997 4.111426
  H 2.906059 1.099588 4.899126
  H 4.218835 1.554499 3.834583
  H 2.360288 0.286259 -1.804337
  H 4.927222 -0.149481 -0.251340
  H 5.442773 -1.989803 -3.606631
  H 4.776348 -0.579334 -4.383676
  H 2.506843 -1.076726 -3.379250
  H 3.183745 -2.501394 -2.602809
  H 3.101115 -2.021774 -5.613846
  H 2.038880 -3.093939 -4.722492
  H 3.756438 -3.439876 -4.831020
  H 7.003223 0.065507 -1.925561
 32
 27.468794
  C 0.907631 1.000707 0.310906
  C 2.298944 0.522664 0.335615
  C 3.003527 0.148733 1.587351
  C 2.238800 0.263554 2.894019
  C 3.101917 -0.209691 4.052004
  C 2.941593 0.428288 -0.893126
  C 4.247498 0.029224 -1.081053
  C 5.061457 -0.039859 -2.236456
  C 4.866078 -0.733480 -3.518490
  C 3.569970 -1.503413 -3.633992
  C 3.474529 -2.208570 -4.996875
  O 6.079007 0.833804 -2.100202
  H 0.481615 1.122959 1.294074
  H 0.293268 0.297908 -0.250255
  H 0.852871 1.945800 -0.219932
  H 3.917269 0.750101 1.661529
  H 3.324083 -0.896699 1.492959
  H 1.325626 -0.339590 2.859034
  H 1.952766 1.312372 3.082458
  H 3.385020 -1.264140 3.926238
  H 2.564719 -0.117235 4.984914
  H 4.002953 0.380152 4.126607
  H 2.393088 0.784164 -1.757788
  H 4.809448 -0.321397 -0.210062
  H 5.696814 -1.424154 -3.650507
  H 4.964972 -0.004299 -4.336552
  H 2.722472 -0.817850 -3.522017
  H 3.499133 -2.244525 -2.839916
  H 3.515211 -1.483103 -5.806223
  H 2.532718 -2.752051 -5.072013
  H 4.296700 -2.919172 -5.128708
  H 6.985957 0.605249 -1.853948
 32
 51.767156
  C 0.966870 1.145580 0.463425
  C 2.342683 0.606935 0.420191
  C 3.055549 0.192737 1.646754
  C 2.323148 0.352816 2.970801
  C 3.187709 -0.166096 4.123478
  C 2.927861 0.479417 -0.831839
  C 4.200872 -0.023772 -1.073879
  C 4.829687 -0.140595 -2.358337
  C 4.813975 -0.805070 -3.643908
  C 3.585779 -1.713513 -3.828581
  C 3.609204 -2.391519 -5.197774
  O 5.639642 0.945963 -2.034471
  H 0.574771 1.239703 1.472610
  H 0.304800 0.503822 -0.103016
  H 0.937595 2.125205 -0.015390
  H 3.977573 0.760429 1.717459
  H 3.323972 -0.861296 1.549977
  H 1.380443 -0.201104 2.956010
  H 2.099679 1.399825 3.147154
  H 3.419360 -1.217718 3.994691
  H 2.665537 -0.052773 5.071095
  H 4.121228 0.385886 4.184623
  H 2.364612 0.849220 -1.677715
  H 4.675476 -0.493879 -0.241415
  H 5.716493 -1.402036 -3.765075
  H 4.865071 -0.049287 -4.426331
  H 2.679834 -1.121452 -3.736786
  H 3.572698 -2.468238 -3.048009
  H 3.605787 -1.651131 -5.990630
  H 2.736580 -3.023847 -5.322632
  H 4.497714 -3.015422 -5.314788
  H 6.549547 0.821329 -1.732520
 32
 64.822413
  C 1.005625 1.253120 0.528997
  C 2.387351 0.695488 0.433534
  C 3.124233 0.261231 1.664808
  C 2.386863 0.397850 2.997918
  C 3.264445 -0.101144 4.145257
  C 2.917877 0.562873 -0.794494
  C 4.230434 -0.028767 -1.083473
  C 4.664154 -0.305781 -2.410417
  C 4.745095 -0.921573 -3.708514
  C 3.583055 -1.894113 -3.944576
  C 3.694264 -2.539470 -5.321902
  O 5.265741 0.859727 -1.840741
  H 0.663355 1.348874 1.551441
  H 0.309277 0.608940 -0.007201
  H 0.966733 2.233526 0.058819
  H 4.047999 0.839896 1.742051
  H 3.400074 -0.790543 1.553747
  H 1.460505 -0.182360 2.983265
  H 2.134073 1.445727 3.184572
  H 3.524412 -1.149127 4.007666
  H 2.739320 -0.006090 5.094123
  H 4.185265 0.477112 4.209551
  H 2.355485 0.906781 -1.648296
  H 4.718271 -0.485005 -0.226976
  H 5.690977 -1.471392 -3.827170
  H 4.752212 -0.143955 -4.481724
  H 2.636172 -1.358109 -3.869560
  H 3.590616 -2.667989 -3.175544
  H 3.667399 -1.785327 -6.108138
  H 2.864611 -3.224844 -5.485571
  H 4.621252 -3.102531 -5.416147
  H 6.189037 0.805703 -1.490802
