 23
 0.000000
  H 1.438339 0.162966 0.460249
  C 2.517230 0.147634 0.420372
  C 3.268761 0.619537 1.591745
  C 2.402760 1.086571 2.754173
  H 3.022205 1.419085 3.579489
  C 3.084202 -0.322555 -0.749504
  C 4.460766 -0.415622 -0.982205
  C 5.129099 -0.871337 -2.119220
  C 4.610554 -1.389288 -3.412216
  C 3.117253 -1.495492 -3.678999
  H 2.963950 -1.894701 -4.675556
  O 6.445056 -0.871401 -2.119261
  H 3.928761 1.439895 1.285751
  H 3.930041 -0.183182 1.938871
  H 1.763991 0.279773 3.107358
  H 1.762768 1.912369 2.450526
  H 2.404034 -0.633759 -1.523248
  H 5.099477 -0.089282 -0.169346
  H 5.065437 -2.377784 -3.544200
  H 5.066254 -0.765954 -4.190228
  H 2.639736 -0.519893 -3.633281
  H 2.638935 -2.169251 -2.972465
  H 6.850943 -0.541746 -1.294378
 23
 9.025289
  H 1.433217 0.178400 0.498514
  C 2.512737 0.162749 0.458185
  C 3.253986 0.637499 1.636587
  C 2.367655 1.099393 2.785820
  H 2.973943 1.435998 3.621377
  C 3.080962 -0.307058 -0.710474
  C 4.446404 -0.395893 -0.932396
  C 5.181423 -0.905453 -2.204137
  C 4.633501 -1.415189 -3.476887
  C 3.131567 -1.503260 -3.698366
  H 2.945351 -1.901020 -4.691573
  O 6.480716 -0.902576 -2.197260
  H 3.913952 1.460818 1.338681
  H 3.915063 -0.161814 1.991754
  H 1.728979 0.289348 3.130535
  H 1.727967 1.921751 2.473669
  H 2.403559 -0.619583 -1.487782
  H 5.093885 -0.074161 -0.130719
  H 5.076272 -2.408042 -3.619714
  H 5.077054 -0.796066 -4.265683
  H 2.666634 -0.523077 -3.639721
  H 2.665874 -2.171553 -2.979431
  H 6.888651 -0.572487 -1.371622
 23
 27.075552
  H 1.447978 0.188782 0.519069
  C 2.526399 0.169308 0.471670
  C 3.253139 0.643890 1.653472
  C 2.333070 1.096491 2.779436
  H 2.915964 1.438399 3.631372
  C 3.086919 -0.292848 -0.678393
  C 4.440406 -0.371759 -0.873205
  C 5.236969 -0.936368 -2.282032
  C 4.637018 -1.433335 -3.521953
  C 3.129615 -1.497331 -3.681023
  H 2.902393 -1.892833 -4.668033
  O 6.514302 -0.912649 -2.223980
  H 3.911054 1.471888 1.369043
  H 3.910521 -0.151073 2.021092
  H 1.695263 0.280328 3.110126
  H 1.695942 1.915017 2.453577
  H 2.417620 -0.603294 -1.452725
  H 5.130005 -0.064684 -0.106230
  H 5.062088 -2.431496 -3.687531
  H 5.061987 -0.825890 -4.331098
  H 2.681654 -0.510675 -3.611726
  H 2.681906 -2.163347 -2.949578
  H 6.906613 -0.581507 -1.396799
 23
 47.579667
  H 1.433786 0.199963 0.545768
  C 2.510905 0.181833 0.503180
  C 3.231093 0.664509 1.705637
  C 2.290788 1.112306 2.817865
  H 2.856454 1.457266 3.677761
  C 3.096689 -0.287078 -0.663073
  C 4.430145 -0.355989 -0.831900
  C 5.290760 -0.974352 -2.376795
  C 4.655042 -1.459531 -3.587984
  C 3.135168 -1.498273 -3.682567
  H 2.857710 -1.888498 -4.657224
  O 6.569475 -0.941382 -2.296902
  H 3.888479 1.497698 1.430252
  H 3.887181 -0.128388 2.083820
  H 1.653402 0.291542 3.139644
  H 1.654854 1.928584 2.481832
  H 2.431630 -0.603488 -1.453605
  H 5.155801 -0.064724 -0.102619
  H 5.064121 -2.465163 -3.769829
  H 5.063394 -0.856846 -4.413678
  H 2.708385 -0.504399 -3.592986
  H 2.709342 -2.156327 -2.931857
  H 6.969893 -0.606256 -1.459917
 23
 66.973081
  H 1.409921 0.217035 0.590894
  C 2.483639 0.200680 0.552833
  C 3.201915 0.683953 1.753963
  C 2.259533 1.131339 2.863045
  H 2.821513 1.476895 3.722141
  C 3.079715 -0.267503 -0.610188
  C 4.421323 -0.334084 -0.772561
  C 5.334485 -1.007640 -2.459159
  C 4.679720 -1.488444 -3.661339
  C 3.155114 -1.513069 -3.720593
  H 2.847204 -1.898553 -4.685298
  O 6.594949 -0.968569 -2.365619
  H 3.857846 1.517678 1.479094
  H 3.856945 -0.108107 2.134015
  H 1.622387 0.309697 3.183877
  H 1.623556 1.946932 2.524470
  H 2.418720 -0.584220 -1.401761
  H 5.192782 -0.060594 -0.085572
  H 5.078172 -2.498726 -3.847612
  H 5.077257 -0.884202 -4.492668
  H 2.743173 -0.514334 -3.615025
  H 2.744148 -2.164640 -2.955736
  H 6.991750 -0.634340 -1.530859
 23
 85.198957
  H 1.379571 0.237672 0.641562
  C 2.459849 0.221586 0.604382
  C 3.176200 0.704108 1.804221
  C 2.229651 1.150942 2.912083
  H 2.791549 1.498665 3.776995
  C 3.060138 -0.246358 -0.558151
  C 4.398442 -0.311342 -0.716086
  C 5.370157 -1.040289 -2.540850
  C 4.700988 -1.516150 -3.730300
  C 3.183613 -1.529681 -3.761818
  H 2.853886 -1.914240 -4.723901
  O 6.627581 -1.001204 -2.447307
  H 3.832161 1.538209 1.530445
  H 3.831083 -0.087657 2.185196
  H 1.592661 0.328972 3.230809
  H 1.594111 1.965352 2.571976
  H 2.402581 -0.562678 -1.348929
  H 5.187482 -0.044596 -0.045544
  H 5.088881 -2.526418 -3.921681
  H 5.087976 -0.915683 -4.565354
  H 2.782376 -0.527831 -3.647753
  H 2.783389 -2.177454 -2.988589
  H 7.027349 -0.668735 -1.617074
 23
 100.632200
  H 1.364153 0.255318 0.685426
  C 2.439478 0.241898 0.654686
  C 3.150284 0.725922 1.858466
  C 2.196434 1.169846 2.959453
  H 2.750225 1.517835 3.825180
  C 3.049449 -0.224964 -0.505247
  C 4.382802 -0.286543 -0.654545
  C 5.410311 -1.071361 -2.618630
  C 4.723235 -1.544438 -3.800875
  C 3.199511 -1.545511 -3.801353
  H 2.845700 -1.926326 -4.753779
  O 6.662408 -1.032726 -2.525785
  H 3.805873 1.561771 1.588567
  H 3.804850 -0.064438 2.243315
  H 1.559762 0.346034 3.274076
  H 1.561063 1.982834 2.615240
  H 2.394779 -0.543484 -1.301222
  H 5.190961 -0.029264 -0.007763
  H 5.101867 -2.559772 -3.998722
  H 5.101105 -0.944969 -4.644262
  H 2.809445 -0.539933 -3.677801
  H 2.810426 -2.189291 -3.018525
  H 7.067433 -0.700383 -1.695203
 23
 113.029843
  H 1.340386 0.272678 0.728026
  C 2.418884 0.262715 0.706082
  C 3.121384 0.747915 1.913311
  C 2.157742 1.189195 3.007836
  H 2.705315 1.539349 3.879325
  C 3.041526 -0.203072 -0.451176
  C 4.370590 -0.261975 -0.593353
  C 5.446044 -1.103941 -2.700151
  C 4.741785 -1.572541 -3.870949
  C 3.222156 -1.558857 -3.834462
  H 2.839730 -1.936354 -4.778267
  O 6.699367 -1.069227 -2.616990
  H 3.776561 1.585464 1.647864
  H 3.775381 -0.040780 2.302440
  H 1.521060 0.363317 3.317645
  H 1.522549 2.000457 2.658881
  H 2.392696 -0.522842 -1.250438
  H 5.198830 -0.013987 0.030499
  H 5.107164 -2.589542 -4.075223
  H 5.106412 -0.976495 -4.720255
  H 2.846570 -0.549683 -3.699915
  H 2.847580 -2.197519 -3.041053
  H 7.111828 -0.738852 -1.791158
 23
 122.188463
  H 1.321403 0.291955 0.775774
  C 2.399750 0.286599 0.765488
  C 3.087812 0.772148 1.973699
  C 2.114748 1.210747 3.061523
  H 2.654913 1.562016 3.935890
  C 3.038122 -0.178564 -0.390047
  C 4.363112 -0.236368 -0.529131
  C 5.483025 -1.135941 -2.779958
  C 4.761896 -1.603296 -3.947630
  C 3.241710 -1.574797 -3.874200
  H 2.830556 -1.948150 -4.807541
  O 6.740501 -1.108838 -2.715961
  H 3.742437 1.610726 1.712613
  H 3.741172 -0.014331 2.366674
  H 1.478503 0.383550 3.366846
  H 1.480021 2.019939 2.708441
  H 2.394164 -0.500876 -1.195843
  H 5.203673 0.005476 0.079869
  H 5.114752 -2.624030 -4.158024
  H 5.114027 -1.008850 -4.803992
  H 2.880490 -0.561487 -3.728432
  H 2.881435 -2.208617 -3.069804
  H 7.161407 -0.779632 -1.893197
 23
 128.485670
  H 1.296851 0.310803 0.823800
  C 2.377642 0.310580 0.825700
  C 3.051621 0.798089 2.037747
  C 2.070468 1.234550 3.120775
  H 2.605659 1.587504 3.998591
  C 3.029700 -0.153160 -0.326103
  C 4.354796 -0.211211 -0.466228
  C 5.516431 -1.168880 -2.861945
  C 4.782183 -1.634199 -4.024821
  C 3.266115 -1.591192 -3.915730
  H 2.827297 -1.960265 -4.838454
  O 6.781418 -1.152667 -2.824671
  H 3.706545 1.637969 1.780222
  H 3.705812 0.013594 2.434216
  H 1.434537 0.405821 3.422981
  H 1.435489 2.042165 2.764412
  H 2.391167 -0.477668 -1.136757
  H 5.201486 0.027969 0.135994
  H 5.121761 -2.656807 -4.239925
  H 5.121287 -1.041775 -4.885881
  H 2.919865 -0.574605 -3.759273
  H 2.920544 -2.219905 -3.101388
  H 7.212012 -0.825722 -2.006575
 23
 132.788042
  H 1.274107 0.331328 0.876814
  C 2.355069 0.335840 0.889559
  C 3.014741 0.824998 2.103918
  C 2.027541 1.259202 3.181985
  H 2.558029 1.613341 4.061418
  C 3.018890 -0.126605 -0.258708
  C 4.343968 -0.184952 -0.400367
  C 5.550005 -1.200151 -2.939645
  C 4.802946 -1.664873 -4.101661
  C 3.287750 -1.609549 -3.962492
  H 2.825317 -1.974607 -4.875539
  O 6.819991 -1.195370 -2.930124
  H 3.669911 1.665399 1.849428
  H 3.670052 0.043015 2.503056
  H 1.392409 0.429482 3.481746
  H 1.392375 2.065071 2.823056
  H 2.385151 -0.453582 -1.074568
  H 5.192588 0.053616 0.200068
  H 5.131440 -2.690354 -4.320671
  H 5.131266 -1.073093 -4.967410
  H 2.954225 -0.589747 -3.796932
  H 2.954594 -2.234324 -3.139531
  H 7.261059 -0.870589 -2.116118
 23
 135.693135
  H 1.248113 0.352739 0.932370
  C 2.330148 0.361179 0.954192
  C 2.977950 0.852410 2.171349
  C 1.985886 1.285267 3.246026
  H 2.513326 1.640793 4.127126
  C 3.002500 -0.099953 -0.190011
  C 4.329012 -0.158892 -0.333926
  C 5.580541 -1.231013 -3.016314
  C 4.822854 -1.694236 -4.175610
  C 3.311367 -1.628485 -4.010857
  H 2.829042 -1.989685 -4.914941
  O 6.854932 -1.237710 -3.034868
  H 3.634189 1.693231 1.918970
  H 3.635149 0.072494 2.572707
  H 1.351142 0.454588 3.544447
  H 1.350237 2.090006 2.885026
  H 2.373197 -0.428746 -1.009528
  H 5.177389 0.080234 0.267934
  H 5.141195 -2.721145 -4.397553
  H 5.141247 -1.103188 -5.044239
  H 2.989339 -0.606540 -3.837603
  H 2.989445 -2.249793 -3.181135
  H 7.307007 -0.915427 -2.226147
 23
 137.643863
  H 1.222583 0.376269 0.992387
  C 2.304691 0.387792 1.021644
  C 2.941641 0.880509 2.240623
  C 1.945750 1.311914 3.311547
  H 2.470095 1.668399 4.193675
  C 2.983781 -0.072288 -0.119136
  C 4.311132 -0.131667 -0.264841
  C 5.610467 -1.260358 -3.089274
  C 4.842319 -1.722754 -4.247331
  C 3.332166 -1.648689 -4.062222
  H 2.833788 -2.006806 -4.959138
  O 6.886882 -1.277243 -3.132857
  H 3.598966 1.721159 1.990354
  H 3.600522 0.102838 2.643719
  H 1.311503 0.480667 3.608581
  H 1.309988 2.115418 2.948788
  H 2.358236 -0.402646 -0.942028
  H 5.158011 0.108463 0.339896
  H 5.152639 -2.751595 -4.471594
  H 5.152861 -1.131721 -5.118786
  H 3.019256 -0.624657 -3.882888
  H 3.019107 -2.267486 -3.226873
  H 7.348940 -0.956902 -2.328779
 23
 138.921459
  H 1.195072 0.401085 1.055844
  C 2.277599 0.414877 1.091069
  C 2.905718 0.909361 2.311962
  C 1.906301 1.340148 3.379877
  H 2.428183 1.697791 4.263149
  C 2.961328 -0.044517 -0.046367
  C 4.289962 -0.104386 -0.194046
  C 5.637455 -1.289012 -3.160526
  C 4.860273 -1.749879 -4.316061
  C 3.353019 -1.669203 -4.114565
  H 2.841979 -2.024377 -5.005234
  O 6.915196 -1.314706 -3.226388
  H 3.564611 1.749761 2.063260
  H 3.566453 0.133607 2.716799
  H 1.272138 0.508385 3.676065
  H 1.270350 2.142844 3.015252
  H 2.338846 -0.376027 -0.871511
  H 5.135095 0.136858 0.413986
  H 5.163686 -2.779681 -4.542208
  H 5.163969 -1.158853 -5.189079
  H 3.047802 -0.643941 -3.930209
  H 3.047483 -2.285993 -3.275272
  H 7.385981 -0.996024 -2.426837
