 20
 0.000000
  C 0.958364 -0.017674 -0.006301
  C 2.454151 0.001566 0.011384
  C 3.168150 0.814106 0.797879
  C 4.606252 0.829927 0.813721
  C 5.327190 1.646533 1.602007
  C 6.765889 1.660620 1.616202
  C 7.484667 2.471607 2.399053
  C 8.974807 2.500981 2.428016
  H 0.599064 -0.756052 -0.722293
  H 0.560774 0.954144 -0.298889
  H 0.561924 -0.282035 0.974100
  H 2.955779 -0.687192 -0.655816
  H 2.655948 1.500431 1.461289
  H 5.110234 0.140004 0.148194
  H 4.823696 2.336605 2.267678
  H 7.272110 0.971364 0.951320
  H 6.986520 3.163732 3.066708
  H 9.408291 1.782135 1.734549
  H 9.334093 2.269320 3.432044
  H 9.334617 3.495947 2.160847
 20
 -0.358321
  C 0.951806 -0.020156 -0.006084
  C 2.446018 -0.000173 -0.005818
  C 3.174355 0.791849 0.786416
  C 4.607482 0.834251 0.792335
  C 5.332022 1.624589 1.603762
  C 6.769339 1.666345 1.610498
  C 7.489950 2.450381 2.415159
  C 8.979847 2.505527 2.434823
  H 0.571042 -0.907107 -0.505518
  H 0.561387 0.856086 -0.527657
  H 0.567857 0.003192 1.011264
  H 2.943043 -0.653484 -0.711732
  H 2.671409 1.451061 1.483564
  H 5.114056 0.181209 0.092913
  H 4.824874 2.278128 2.303195
  H 7.273741 1.011401 0.909949
  H 6.986487 3.105645 3.116017
  H 9.407452 1.820748 1.705150
  H 9.355413 2.244158 3.425740
  H 9.324267 3.517022 2.212863
 20
 -0.632997
  C 0.949063 -0.006151 0.023041
  C 2.439497 0.032366 -0.057324
  C 3.187229 0.782506 0.754245
  C 4.621401 0.839261 0.759822
  C 5.336865 1.614316 1.593274
  C 6.771958 1.666775 1.606130
  C 7.483719 2.438016 2.431461
  C 8.971154 2.504281 2.457580
  H 0.575257 -0.994795 -0.236194
  H 0.505635 0.712461 -0.667161
  H 0.625950 0.237427 1.034780
  H 2.906839 -0.590018 -0.808587
  H 2.692954 1.414401 1.483922
  H 5.135905 0.208732 0.044770
  H 4.822481 2.244990 2.307922
  H 7.283585 1.032997 0.892051
  H 6.973129 3.072679 3.145032
  H 9.406246 1.839475 1.715200
  H 9.344929 2.224385 3.443062
  H 9.308092 3.522459 2.259190
 20
 -0.152476
  C 0.957220 -0.021771 0.051051
  C 2.434611 0.093417 -0.113694
  C 3.183097 0.816626 0.721662
  C 4.617631 0.872062 0.727937
  C 5.333794 1.629623 1.576976
  C 6.769163 1.666712 1.603411
  C 7.481520 2.422599 2.442384
  C 8.969178 2.471801 2.483321
  H 0.667335 -1.073141 0.061366
  H 0.414881 0.467451 -0.756253
  H 0.684736 0.406510 1.013833
  H 2.889319 -0.465239 -0.920420
  H 2.690898 1.455709 1.446169
  H 5.132193 0.246402 0.008705
  H 4.819531 2.254474 2.296863
  H 7.280694 1.034902 0.887502
  H 6.971358 3.055834 3.157499
  H 9.404018 1.807722 1.740149
  H 9.330107 2.179933 3.470130
  H 9.319656 3.487468 2.296111
 20
 4.469601
  C 0.982261 -0.055856 0.091994
  C 2.427338 0.175477 -0.190384
  C 3.172719 0.857238 0.688147
  C 4.606561 0.895095 0.707203
  C 5.324278 1.651625 1.554933
  C 6.758326 1.651362 1.612242
  C 7.472737 2.418053 2.437973
  C 8.959410 2.428187 2.510406
  H 0.836712 -1.119825 0.300351
  H 0.312938 0.225897 -0.713472
  H 0.783640 0.444570 1.036152
  H 2.849300 -0.226830 -1.100213
  H 2.689819 1.563722 1.353361
  H 5.121250 0.238503 0.016650
  H 4.811265 2.304522 2.250603
  H 7.267613 0.976742 0.934984
  H 6.965109 3.093249 3.115649
  H 9.389911 1.700592 1.826873
  H 9.289655 2.198125 3.523614
  H 9.344614 3.417392 2.259323
 20
 15.786921
  C 1.042642 -0.141374 0.206296
  C 2.407261 0.211008 -0.277445
  C 3.152053 1.000541 0.540547
  C 4.580170 0.976441 0.611927
  C 5.306392 1.735146 1.472875
  C 6.739365 1.658999 1.603397
  C 7.459119 2.410095 2.448514
  C 8.941193 2.346370 2.584775
  H 1.066201 -1.163456 0.596100
  H 0.245579 -0.051830 -0.511069
  H 0.966973 0.436886 1.121162
  H 2.763805 -0.157115 -1.232108
  H 2.669820 1.825523 1.046135
  H 5.086764 0.247334 -0.006196
  H 4.795354 2.443051 2.116538
  H 7.246825 0.964179 0.943788
  H 6.956037 3.111092 3.104045
  H 9.369106 1.645047 1.873085
  H 9.216835 2.041212 3.592750
  H 9.380360 3.331509 2.411060
 20
 34.773157
  C 1.084864 -0.139517 0.187639
  C 2.410754 0.263370 -0.366938
  C 3.152872 0.949067 0.551254
  C 4.576718 0.919463 0.645520
  C 5.292002 1.698066 1.489861
  C 6.709301 1.611418 1.645535
  C 7.431464 2.409952 2.445707
  C 8.917506 2.362906 2.574061
  H 1.107607 -1.132859 0.656781
  H 0.216374 -0.015469 -0.444676
  H 1.233292 0.367766 1.163590
  H 2.693414 0.115268 -1.401489
  H 2.695002 1.792290 1.050549
  H 5.092586 0.172151 0.051982
  H 4.777994 2.427075 2.101345
  H 7.210159 0.843777 1.068791
  H 6.933563 3.172482 3.030979
  H 9.335546 1.525618 2.017315
  H 9.207048 2.281139 3.624456
  H 9.356782 3.284331 2.192718
 20
 62.567015
  C 1.189178 -0.176928 0.279915
  C 2.360749 0.291489 -0.453517
  C 3.119917 1.010487 0.456579
  C 4.540228 0.951937 0.585182
  C 5.257652 1.730072 1.429332
  C 6.681965 1.640661 1.590560
  C 7.398190 2.412734 2.432291
  C 8.874562 2.308146 2.633758
  H 1.328738 -1.080485 0.898372
  H 0.228260 -0.235810 -0.231568
  H 1.614083 0.435819 1.233821
  H 2.560518 0.163449 -1.506506
  H 2.700226 1.933008 0.847049
  H 5.051813 0.184371 0.008859
  H 4.748264 2.476428 2.022089
  H 7.188227 0.892969 0.991038
  H 6.894264 3.164876 3.029302
  H 9.292935 1.500833 2.034746
  H 9.096520 2.101328 3.680439
  H 9.366594 3.242921 2.370478
 20
 80.169030
  C 1.217494 -0.233539 0.172975
  C 2.328803 0.328954 -0.463120
  C 3.064798 1.015955 0.548344
  C 4.505486 0.955183 0.659335
  C 5.238030 1.727453 1.482421
  C 6.662476 1.619117 1.629734
  C 7.393180 2.393110 2.435783
  C 8.871796 2.298244 2.589909
  H 1.359192 -1.059499 0.856284
  H 0.263419 -0.327618 -0.349739
  H 1.891804 0.487874 1.310923
  H 2.563558 0.294951 -1.515628
  H 2.648613 1.955664 0.900801
  H 4.997722 0.183104 0.080133
  H 4.744723 2.484364 2.081046
  H 7.151097 0.856407 1.034181
  H 6.907204 3.155900 3.030792
  H 9.277675 1.491026 1.984027
  H 9.134481 2.122115 3.634577
  H 9.344203 3.234314 2.289071
 20
 62.808822
  C 1.223987 -0.314214 0.087698
  C 2.263128 0.362465 -0.471472
  C 2.981669 1.052640 0.635452
  C 4.448441 0.950883 0.755420
  C 5.205170 1.747804 1.519703
  C 6.640793 1.623169 1.641510
  C 7.389857 2.374294 2.446517
  C 8.868391 2.267635 2.570851
  H 1.436344 -1.099058 0.781897
  H 0.290171 -0.525570 -0.420103
  H 2.149069 0.615536 1.367621
  H 2.530005 0.393947 -1.505587
  H 2.609155 2.066797 0.874358
  H 4.905490 0.144655 0.221909
  H 4.744115 2.573227 2.055151
  H 7.108760 0.860860 1.035813
  H 6.921514 3.129355 3.062780
  H 9.259711 1.482079 1.929309
  H 9.149492 2.059570 3.595514
  H 9.338350 3.215642 2.288902
 20
 43.292342
  C 1.220689 -0.339369 0.009127
  C 2.248796 0.386471 -0.444288
  C 2.984214 1.051218 0.678036
  C 4.455616 0.976267 0.753526
  C 5.210841 1.733169 1.548800
  C 6.643656 1.624294 1.640107
  C 7.401154 2.394944 2.415052
  C 8.878961 2.267200 2.550931
  H 1.337376 -1.032388 0.825671
  H 0.346167 -0.590582 -0.584712
  H 2.306677 0.582227 1.459550
  H 2.549641 0.468723 -1.475379
  H 2.588369 2.042953 0.940001
  H 4.917081 0.204687 0.149833
  H 4.741674 2.480011 2.178629
  H 7.107170 0.861345 1.027444
  H 6.941226 3.170033 3.014683
  H 9.255885 1.433231 1.963553
  H 9.147213 2.108681 3.595730
  H 9.373178 3.182357 2.222855
 20
 25.775284
  C 1.219979 -0.350776 -0.135016
  C 2.250455 0.445671 -0.395272
  C 2.950218 1.005829 0.806186
  C 4.427620 0.909522 0.877375
  C 5.201538 1.710099 1.607440
  C 6.636740 1.591591 1.683552
  C 7.415807 2.404535 2.398955
  C 8.898919 2.295501 2.489318
  H 1.217092 -1.012098 0.716587
  H 0.438258 -0.589404 -0.844760
  H 2.360605 0.497717 1.596205
  H 2.629690 0.634833 -1.387732
  H 2.597273 2.025026 1.021116
  H 4.875294 0.108162 0.303391
  H 4.753673 2.509193 2.185363
  H 7.082355 0.786843 1.111759
  H 6.969663 3.209594 2.969819
  H 9.266028 1.455798 1.904140
  H 9.205421 2.161519 3.527157
  H 9.368816 3.210113 2.126353
 20
 13.725671
  C 1.256091 -0.366691 -0.263044
  C 2.264389 0.483146 -0.325425
  C 2.915474 0.958371 0.939053
  C 4.402231 0.868003 0.973001
  C 5.192786 1.690980 1.661126
  C 6.631120 1.583888 1.695826
  C 7.423423 2.414601 2.372148
  C 8.909395 2.316979 2.422638
  H 1.062076 -0.953151 0.621616
  H 0.619223 -0.618730 -1.098628
  H 2.422644 0.382890 1.737871
  H 2.697467 0.798559 -1.263370
  H 2.585003 1.984303 1.145943
  H 4.837498 0.063734 0.393082
  H 4.757497 2.496979 2.239009
  H 7.065273 0.769414 1.129132
  H 6.988286 3.227712 2.940035
  H 9.265276 1.462389 1.852435
  H 9.247225 2.218399 3.454517
  H 9.361652 3.222552 2.016758
 20
 9.560364
  C 1.366530 -0.444570 -0.335563
  C 2.250120 0.533857 -0.277692
  C 2.870561 0.981292 1.011655
  C 4.361077 0.871862 1.027066
  C 5.173327 1.721723 1.654215
  C 6.609970 1.586721 1.686620
  C 7.419737 2.410172 2.351107
  C 8.903833 2.279976 2.403983
  H 1.150196 -1.056097 0.527357
  H 0.813739 -0.689190 -1.231307
  H 2.413746 0.386736 1.816600
  H 2.580050 1.044823 -1.172239
  H 2.572580 2.016947 1.205128
  H 4.774680 0.028718 0.487266
  H 4.758959 2.566576 2.190675
  H 7.026302 0.752547 1.134033
  H 7.001385 3.242115 2.905094
  H 9.230805 1.348273 1.949685
  H 9.251695 2.314005 3.436953
  H 9.374736 3.107841 1.873087
 20
 8.703914
  C 1.545338 -0.510845 -0.389433
  C 2.225672 0.608762 -0.251465
  C 2.810199 1.052880 1.057010
  C 4.299628 0.897213 1.078713
  C 5.140922 1.751607 1.659336
  C 6.572719 1.570410 1.700262
  C 7.406814 2.379996 2.352277
  C 8.890738 2.228554 2.371759
  H 1.389638 -1.168375 0.453143
  H 1.083332 -0.820589 -1.310058
  H 2.356842 0.458626 1.864519
  H 2.405419 1.263994 -1.094980
  H 2.546182 2.098880 1.234782
  H 4.679847 0.009273 0.587968
  H 4.754234 2.634688 2.153232
  H 6.964431 0.714834 1.159580
  H 7.012722 3.233054 2.894067
  H 9.187102 1.238239 2.035805
  H 9.282360 2.397598 3.375420
  H 9.349889 2.965528 1.711786
