 13
 0.000000
  H 1.424220 0.057495 0.116759
  C 2.505600 0.058804 0.093539
  C 3.186333 -0.016273 1.424121
  H 2.471612 -0.062377 2.241125
  C 3.136250 0.124932 -1.078361
  H 2.582423 0.177293 -2.006311
  C 4.573957 0.134112 -1.241008
  C 5.179845 0.200797 -2.422892
  H 6.252162 0.206642 -2.526458
  H 3.823799 0.855207 1.575580
  H 3.823805 -0.899255 1.476581
  H 5.177379 0.083574 -0.345336
  H 4.637603 0.253343 -3.354117
 13
 -0.114789
  H 1.435977 0.029532 0.097223
  C 2.519347 0.049500 0.095472
  C 3.176154 -0.008593 1.435509
  H 2.436302 0.012844 2.230872
  C 3.154306 0.117200 -1.076265
  H 2.575969 0.163594 -1.993969
  C 4.588387 0.136607 -1.249619
  C 5.178148 0.197211 -2.439460
  H 6.248503 0.225521 -2.548749
  H 3.853491 0.832877 1.575697
  H 3.763120 -0.921122 1.536719
  H 5.192909 0.104970 -0.354332
  H 4.608826 0.234030 -3.353732
 13
 -0.115548
  H 1.430107 0.047897 0.093087
  C 2.512108 0.057668 0.089850
  C 3.169787 -0.011945 1.434353
  H 2.426717 -0.035589 2.224945
  C 3.151008 0.126574 -1.078888
  H 2.573349 0.174091 -1.992622
  C 4.587229 0.141834 -1.246710
  C 5.183080 0.188452 -2.434348
  H 6.253626 0.203712 -2.536060
  H 3.814391 0.852296 1.595431
  H 3.787755 -0.905404 1.516037
  H 5.185245 0.112901 -0.346854
  H 4.614776 0.221509 -3.349010
 13
 -0.060635
  H 1.427401 0.036110 0.085281
  C 2.509160 0.051097 0.086987
  C 3.161051 -0.015380 1.435872
  H 2.414656 0.013442 2.224067
  C 3.151502 0.121596 -1.079904
  H 2.576539 0.165666 -1.995889
  C 4.586272 0.144737 -1.243877
  C 5.187364 0.199060 -2.428899
  H 6.257208 0.226806 -2.525171
  H 3.845426 0.821921 1.579251
  H 3.732847 -0.936226 1.545882
  H 5.179068 0.115758 -0.343177
  H 4.622233 0.228719 -3.347052
 13
 -0.046491
  H 1.423028 0.011623 0.079002
  C 2.505859 0.045283 0.088358
  C 3.153606 -0.017247 1.435697
  H 2.406685 0.078064 2.218397
  C 3.153655 0.105779 -1.075486
  H 2.582407 0.135470 -1.992517
  C 4.589167 0.147629 -1.236249
  C 5.188445 0.206896 -2.420928
  H 6.259533 0.277239 -2.519359
  H 3.890665 0.773394 1.561149
  H 3.664059 -0.970000 1.568664
  H 5.182946 0.154213 -0.330826
  H 4.620099 0.223426 -3.342093
 13
 -0.059656
  H 1.425551 -0.030899 0.078083
  C 2.501887 0.016701 0.089287
  C 3.145839 -0.009567 1.432630
  H 2.405519 0.147649 2.212823
  C 3.156834 0.082720 -1.072845
  H 2.584894 0.104733 -1.995576
  C 4.588645 0.153123 -1.228844
  C 5.191332 0.239238 -2.412010
  H 6.251778 0.292055 -2.504814
  H 3.917592 0.759246 1.526083
  H 3.614024 -0.978844 1.607948
  H 5.182234 0.125045 -0.318407
  H 4.632777 0.267330 -3.325213
 13
 -0.156022
  H 1.415984 -0.038424 0.016493
  C 2.496793 0.016540 0.060281
  C 3.088010 -0.015645 1.436457
  H 2.329394 0.212326 2.182135
  C 3.177096 0.086803 -1.086437
  H 2.629672 0.099588 -2.021514
  C 4.616402 0.147489 -1.207552
  C 5.244662 0.255304 -2.373384
  H 6.318238 0.304899 -2.442933
  H 3.900966 0.701328 1.537002
  H 3.487685 -1.007937 1.654670
  H 5.188768 0.098316 -0.291568
  H 4.700844 0.305851 -3.303792
 13
 -0.134724
  H 1.420619 -0.051391 0.033587
  C 2.498951 0.007388 0.072112
  C 3.093460 -0.013642 1.442063
  H 2.355783 0.288832 2.180636
  C 3.178584 0.064847 -1.075812
  H 2.630021 0.074158 -2.009879
  C 4.616628 0.130514 -1.203160
  C 5.239819 0.281463 -2.367589
  H 6.313428 0.336756 -2.439291
  H 3.952634 0.650799 1.512731
  H 3.425441 -1.021388 1.696360
  H 5.193254 0.048169 -0.294157
  H 4.693785 0.367439 -3.293079
 13
 0.097244
  H 1.421920 -0.070623 0.039507
  C 2.502949 -0.005456 0.081251
  C 3.102204 -0.003058 1.451457
  H 2.372511 0.346158 2.174331
  C 3.183468 0.028133 -1.066319
  H 2.637650 0.065584 -2.000837
  C 4.620960 0.105205 -1.195528
  C 5.239292 0.332364 -2.351192
  H 6.310731 0.330877 -2.435339
  H 3.973508 0.639339 1.501111
  H 3.400370 -1.014191 1.737886
  H 5.204579 -0.038321 -0.294485
  H 4.688338 0.445284 -3.271836
 13
 0.333824
  H 1.427476 -0.069509 0.076825
  C 2.507088 -0.001417 0.098963
  C 3.118966 0.006136 1.463292
  H 2.372186 0.339514 2.181659
  C 3.186991 0.031382 -1.050661
  H 2.637980 0.117844 -1.980227
  C 4.624184 0.064179 -1.190617
  C 5.242971 0.319884 -2.340005
  H 6.316979 0.323871 -2.419280
  H 3.980707 0.667832 1.499214
  H 3.425759 -1.005794 1.726701
  H 5.205023 -0.115286 -0.299275
  H 4.698646 0.477176 -3.257204
 13
 5.803647
  H 1.413544 -0.008151 0.151939
  C 2.490262 0.031109 0.090164
  C 3.141250 0.018115 1.467456
  H 2.316465 0.251322 2.136785
  C 3.176213 0.024009 -1.050950
  H 2.647434 0.188017 -1.979503
  C 4.610164 0.057870 -1.174656
  C 5.255533 0.305621 -2.308906
  H 6.330072 0.276849 -2.346558
  H 3.963303 0.712882 1.461021
  H 3.467306 -1.028812 1.591192
  H 5.163474 -0.065722 -0.256851
  H 4.769938 0.392703 -3.271746
 13
 17.910431
  H 1.372030 -0.049687 0.198195
  C 2.453708 0.001984 0.107425
  C 3.192102 0.026149 1.453068
  H 2.364920 0.356610 2.053632
  C 3.174160 0.009693 -1.018423
  H 2.660524 0.169312 -1.955085
  C 4.598413 0.036891 -1.152427
  C 5.249901 0.335215 -2.268093
  H 6.323743 0.265021 -2.306287
  H 4.005925 0.711004 1.316613
  H 3.447462 -1.039655 1.576469
  H 5.137449 -0.161215 -0.269848
  H 4.764620 0.494490 -3.225853
