 20
 0.000000
  C 1.000998 0.116145 0.341258
  C 2.476046 0.117988 0.344704
  C 3.202236 0.595569 1.535462
  H 2.521974 0.910261 2.317080
  C 3.127819 -0.339256 -0.790198
  C 4.511313 -0.399144 -0.941615
  C 5.182563 -0.854207 -2.074914
  C 4.541403 -1.352942 -3.310694
  H 3.462250 -1.337000 -3.267737
  O 6.488193 -0.869279 -2.119074
  H 0.582342 0.479504 1.273206
  H 0.629631 -0.890517 0.148835
  H 0.625450 0.728351 -0.480511
  H 3.850589 1.434271 1.278704
  H 3.848918 -0.188819 1.930630
  H 2.497925 -0.668757 -1.603672
  H 5.123077 -0.064972 -0.113971
  H 4.886638 -2.369230 -3.505055
  H 4.884679 -0.754593 -4.155708
  H 6.932941 -0.543598 -1.313945
 20
 1.951174
  C 1.033834 0.113834 0.279438
  C 2.504460 0.149989 0.379097
  C 3.189152 0.608145 1.599565
  H 2.481874 0.913107 2.362724
  C 3.149182 -0.310469 -0.749010
  C 4.530089 -0.376046 -0.937622
  C 5.176024 -0.854922 -2.086446
  C 4.497010 -1.374946 -3.293831
  H 3.419168 -1.354203 -3.216487
  O 6.488925 -0.873497 -2.167991
  H 0.520982 0.369162 1.201516
  H 0.772633 -0.896888 -0.061289
  H 0.687004 0.780198 -0.514304
  H 3.847965 1.447296 1.376297
  H 3.821527 -0.183229 2.001069
  H 2.449293 -0.654378 -1.516489
  H 5.159403 -0.025316 -0.129093
  H 4.833190 -2.395023 -3.479478
  H 4.814860 -0.793450 -4.159197
  H 6.956674 -0.534608 -1.382134
 20
 5.195926
  C 1.063524 0.104081 0.238979
  C 2.522513 0.172325 0.398749
  C 3.174092 0.623520 1.636026
  H 2.447231 0.922756 2.382282
  C 3.172036 -0.298982 -0.733073
  C 4.539340 -0.362744 -0.942751
  C 5.164928 -0.858377 -2.091404
  C 4.463002 -1.397927 -3.270760
  H 3.386859 -1.374078 -3.166661
  O 6.472049 -0.875672 -2.198377
  H 0.490738 0.192038 1.154205
  H 0.907209 -0.846609 -0.300717
  H 0.734335 0.885948 -0.452986
  H 3.838365 1.459672 1.436755
  H 3.794936 -0.169192 2.043791
  H 2.429182 -0.656544 -1.442081
  H 5.175199 0.005188 -0.149832
  H 4.794940 -2.420702 -3.445954
  H 4.760756 -0.831451 -4.152397
  H 6.953465 -0.522783 -1.426958
 20
 10.975402
  C 1.087076 0.093145 0.200671
  C 2.536959 0.187187 0.411452
  C 3.159852 0.633337 1.661988
  H 2.416924 0.926832 2.393209
  C 3.188650 -0.286558 -0.715087
  C 4.555227 -0.350806 -0.947273
  C 5.157287 -0.860085 -2.093277
  C 4.432287 -1.412345 -3.246605
  H 3.356461 -1.382366 -3.119410
  O 6.463795 -0.880950 -2.225008
  H 0.474635 0.047682 1.094401
  H 1.029017 -0.777982 -0.470926
  H 0.750635 0.951398 -0.401334
  H 3.827232 1.467914 1.483538
  H 3.770477 -0.160915 2.075435
  H 2.390627 -0.668365 -1.384461
  H 5.202680 0.029934 -0.171691
  H 4.757135 -2.437536 -3.413597
  H 4.713498 -0.859716 -4.140891
  H 6.963128 -0.517419 -1.463615
 20
 18.954711
  C 1.102154 0.071670 0.176745
  C 2.543181 0.192923 0.424198
  C 3.146473 0.664799 1.679986
  H 2.390357 0.963308 2.397033
  C 3.201723 -0.289372 -0.697994
  C 4.565479 -0.359951 -0.942104
  C 5.151038 -0.869481 -2.092796
  C 4.406281 -1.411544 -3.244101
  H 3.330308 -1.368648 -3.104986
  O 6.454369 -0.900720 -2.236499
  H 0.469072 -0.094547 1.041088
  H 1.148135 -0.731104 -0.603335
  H 0.740969 0.975661 -0.336345
  H 3.813766 1.504801 1.498333
  H 3.759439 -0.122511 2.114669
  H 2.362586 -0.664336 -1.333171
  H 5.223025 0.013127 -0.169663
  H 4.717455 -2.441260 -3.417885
  H 4.685342 -0.858931 -4.140685
  H 6.966730 -0.542549 -1.473527
 20
 28.730301
  C 1.108288 0.051933 0.169572
  C 2.544637 0.196850 0.434444
  C 3.130929 0.699438 1.681438
  H 2.367685 1.003215 2.384579
  C 3.213270 -0.292005 -0.684287
  C 4.574598 -0.373370 -0.930116
  C 5.152065 -0.881500 -2.091100
  C 4.391809 -1.402104 -3.248551
  H 3.316059 -1.341571 -3.104197
  O 6.453665 -0.928516 -2.240187
  H 0.477918 -0.220348 1.008750
  H 1.241061 -0.684953 -0.697070
  H 0.711910 0.973499 -0.257079
  H 3.792101 1.545628 1.486358
  H 3.750523 -0.074646 2.137935
  H 2.325706 -0.657822 -1.292826
  H 5.238895 -0.018867 -0.152733
  H 4.684135 -2.435475 -3.433298
  H 4.677109 -0.846404 -4.141098
  H 6.968139 -0.587857 -1.482204
 20
 40.067601
  C 1.112108 0.030180 0.167093
  C 2.545382 0.195969 0.437535
  C 3.121046 0.733280 1.676307
  H 2.350628 1.043286 2.371396
  C 3.222507 -0.297580 -0.674003
  C 4.582871 -0.392749 -0.920140
  C 5.150339 -0.892651 -2.087779
  C 4.379977 -1.382105 -3.248254
  H 3.308895 -1.302063 -3.100042
  O 6.452153 -0.958373 -2.241542
  H 0.499559 -0.314274 0.988691
  H 1.307333 -0.660746 -0.758158
  H 0.677322 0.956231 -0.204950
  H 3.769235 1.581659 1.464218
  H 3.748033 -0.020707 2.151177
  H 2.276333 -0.654919 -1.267959
  H 5.254292 -0.062459 -0.136042
  H 4.651823 -2.421021 -3.447317
  H 4.675432 -0.818505 -4.136063
  H 6.973478 -0.636658 -1.480100
 20
 51.849083
  C 1.117281 0.018242 0.175643
  C 2.544163 0.195036 0.438656
  C 3.109906 0.756678 1.662109
  H 2.329289 1.072992 2.356622
  C 3.230434 -0.300809 -0.665310
  C 4.589826 -0.407815 -0.906999
  C 5.154241 -0.900213 -2.082984
  C 4.372999 -1.366602 -3.263408
  H 3.302410 -1.270432 -3.117880
  O 6.451305 -0.979843 -2.232867
  H 0.510528 -0.371241 1.004733
  H 1.361172 -0.651087 -0.783925
  H 0.649531 0.942693 -0.179153
  H 3.748632 1.610511 1.432536
  H 3.744848 0.019179 2.149635
  H 2.233115 -0.652025 -1.238740
  H 5.264134 -0.102132 -0.113553
  H 4.626292 -2.403137 -3.475069
  H 4.679338 -0.799925 -4.138812
  H 6.972664 -0.673605 -1.464724
 20
 61.866882
  C 1.109204 -0.002819 0.189923
  C 2.539728 0.190465 0.431309
  C 3.112883 0.796445 1.648407
  H 2.336037 1.117758 2.340469
  C 3.229575 -0.309247 -0.662297
  C 4.589588 -0.434377 -0.898124
  C 5.149580 -0.909356 -2.074749
  C 4.370273 -1.328592 -3.259884
  H 3.296670 -1.206937 -3.116102
  O 6.450825 -1.012318 -2.222984
  H 0.537499 -0.411247 1.007573
  H 1.371138 -0.673557 -0.821607
  H 0.618399 0.894954 -0.156319
  H 3.731120 1.651201 1.393063
  H 3.762571 0.085247 2.147855
  H 2.178862 -0.673477 -1.242075
  H 5.264243 -0.167639 -0.089759
  H 4.598724 -2.367128 -3.490851
  H 4.697007 -0.751058 -4.121060
  H 6.973860 -0.732960 -1.448187
 20
 70.851734
  C 1.098377 -0.028348 0.230253
  C 2.534229 0.186201 0.430109
  C 3.110091 0.851226 1.613753
  H 2.338406 1.179244 2.300197
  C 3.232411 -0.321744 -0.648507
  C 4.590247 -0.473274 -0.878303
  C 5.150493 -0.923214 -2.065601
  C 4.375896 -1.272652 -3.271557
  H 3.311594 -1.116171 -3.136943
  O 6.452118 -1.059413 -2.206841
  H 0.553737 -0.457375 1.069814
  H 1.361717 -0.717987 -0.847518
  H 0.572379 0.851582 -0.126114
  H 3.702808 1.715168 1.313126
  H 3.788421 0.171810 2.133897
  H 2.123638 -0.715626 -1.249338
  H 5.260997 -0.267363 -0.049328
  H 4.569619 -2.317204 -3.535918
  H 4.738314 -0.673470 -4.113674
  H 6.974498 -0.824767 -1.417541
 20
 79.856328
  C 1.091966 -0.051932 0.279487
  C 2.529592 0.182232 0.425214
  C 3.107063 0.915423 1.574759
  H 2.333738 1.254863 2.257910
  C 3.244163 -0.338752 -0.623809
  C 4.597549 -0.519090 -0.854930
  C 5.153609 -0.934377 -2.052447
  C 4.377582 -1.202741 -3.286082
  H 3.317548 -1.003830 -3.157724
  O 6.451590 -1.112854 -2.187580
  H 0.584765 -0.475359 1.133070
  H 1.348817 -0.795163 -0.878011
  H 0.530816 0.792743 -0.114127
  H 3.669778 1.781314 1.226042
  H 3.808881 0.276668 2.113859
  H 2.071789 -0.786386 -1.268986
  H 5.263251 -0.382067 -0.007101
  H 4.526916 -2.236942 -3.588345
  H 4.773955 -0.591203 -4.093001
  H 6.970586 -0.934525 -1.385146
 20
 87.936350
  C 1.089291 -0.057434 0.325836
  C 2.523816 0.179633 0.415425
  C 3.099016 0.980576 1.533517
  H 2.321790 1.334429 2.204983
  C 3.264720 -0.350984 -0.587798
  C 4.607491 -0.565359 -0.833111
  C 5.153370 -0.944935 -2.043113
  C 4.376769 -1.122262 -3.287683
  H 3.326817 -0.875473 -3.154882
  O 6.446938 -1.171084 -2.184439
  H 0.603949 -0.455593 1.212351
  H 1.330764 -0.903085 -0.909925
  H 0.505293 0.729128 -0.131960
  H 3.636059 1.841571 1.138121
  H 3.815465 0.381162 2.094878
  H 2.023459 -0.892504 -1.297263
  H 5.269259 -0.499890 0.027474
  H 4.476196 -2.152363 -3.633697
  H 4.810938 -0.491478 -4.069947
  H 6.968847 -1.050411 -1.372417
 20
 93.938664
  C 1.089212 -0.059286 0.373774
  C 2.521014 0.175699 0.404002
  C 3.086411 1.059522 1.476967
  H 2.299856 1.435226 2.127947
  C 3.297214 -0.370083 -0.539882
  C 4.623553 -0.622321 -0.803086
  C 5.156133 -0.956499 -2.030385
  C 4.371674 -1.018531 -3.284282
  H 3.336442 -0.713642 -3.135288
  O 6.436257 -1.243193 -2.185042
  H 0.630718 -0.411447 1.287252
  H 1.308122 -1.053865 -0.945009
  H 0.478562 0.664624 -0.155119
  H 3.598931 1.906909 1.024424
  H 3.816675 0.506987 2.071204
  H 1.983034 -1.042857 -1.335065
  H 5.279345 -0.642611 0.065348
  H 4.407577 -2.031901 -3.688221
  H 4.841721 -0.374791 -4.026306
  H 6.959580 -1.197839 -1.369216
 20
 97.249837
  C 1.102409 -0.064517 0.411823
  C 2.526694 0.169029 0.386413
  C 3.068131 1.160036 1.402647
  H 2.266680 1.557824 2.016037
  C 3.342853 -0.394580 -0.482388
  C 4.637301 -0.696064 -0.764460
  C 5.151094 -0.970428 -2.015175
  C 4.355876 -0.899919 -3.266826
  H 3.344128 -0.541308 -3.088008
  O 6.404801 -1.323175 -2.190592
  H 0.670539 -0.375889 1.350573
  H 1.287159 -1.218218 -1.007713
  H 0.472807 0.604018 -0.159212
  H 3.560043 1.985047 0.890678
  H 3.800694 0.669817 2.037693
  H 1.959114 -1.207539 -1.398281
  H 5.283092 -0.829074 0.100817
  H 4.324124 -1.884253 -3.731922
  H 4.860642 -0.239790 -3.976211
  H 6.929992 -1.362204 -1.372805
