23

H 1.4050283144498603 0.1349589719215334 0.3865833510922031
C 2.474959 0.139601 0.397843
C 3.241344 0.61325 1.576887
H 2.6835575197243737 0.953523256733473 2.4242289340347343
C 3.094363 -0.323385 -0.755027
C 4.472149 -0.412359 -0.976867
C 5.131358 -0.866652 -2.109178
C 4.616701 -1.387686 -3.407683
C 3.123042 -1.500963 -3.69068
C 2.88598 -2.062364 -5.089851
O 6.456643 -0.870279 -2.118454
H 3.897308 1.429116 1.252057
H 3.89752 -0.20047 1.906587
H 2.434931 -0.640573 -1.544794
H 5.098162 -0.082698 -0.155609
H 5.066315 -2.378812 -3.537783
H 5.066609 -0.761636 -4.18683
H 2.650971 -0.519072 -3.63445
H 2.650588 -2.171419 -2.971371
H 3.320398 -1.416427 -5.849794
H 1.818747 -2.14005 -5.284078
H 3.320021 -3.054609 -5.192431
H 6.842557 -0.536863 -1.28696
