 22
 0.000000
  C 1.031051 0.121082 0.312747
  C 2.500923 0.148125 0.361447
  C 3.241485 0.608389 1.548003
  C 2.422138 1.066827 2.743409
  H 3.091917 1.377577 3.542863
  C 3.168944 -0.291307 -0.775523
  C 4.557081 -0.373045 -0.958654
  C 5.173855 -0.850161 -2.092031
  C 4.546895 -1.361446 -3.308613
  H 3.462133 -1.353269 -3.295353
  H 6.257121 -0.856212 -2.098565
  H 0.563162 0.465175 1.227068
  H 0.687009 -0.893034 0.093442
  H 0.678547 0.732364 -0.519883
  H 3.905108 1.423314 1.238739
  H 3.910422 -0.199017 1.865126
  H 1.795496 0.264933 3.126821
  H 1.789858 1.914590 2.490209
  H 2.541150 -0.613293 -1.595428
  H 5.198055 -0.038931 -0.154634
  H 4.904027 -2.376337 -3.493443
  H 4.908551 -0.786197 -4.163176
 22
 -0.071340
  C 1.029475 0.120653 0.323180
  C 2.494753 0.172606 0.341272
  C 3.241122 0.614136 1.534882
  C 2.422157 1.070993 2.735270
  H 3.091461 1.379525 3.531067
  C 3.155128 -0.265831 -0.802367
  C 4.542839 -0.402152 -0.950996
  C 5.169029 -0.869386 -2.080832
  C 4.552941 -1.318809 -3.325065
  H 3.472393 -1.271743 -3.332549
  H 6.247995 -0.918144 -2.059845
  H 0.567759 0.645513 1.149030
  H 0.740350 -0.934656 0.378271
  H 0.633764 0.485053 -0.624187
  H 3.919627 1.422682 1.235670
  H 3.898040 -0.207590 1.849711
  H 1.798140 0.270355 3.117604
  H 1.791449 1.921740 2.487641
  H 2.533618 -0.540742 -1.640911
  H 5.177427 -0.123595 -0.117286
  H 4.877214 -2.342104 -3.535825
  H 4.952569 -0.728429 -4.153395
 22
 1.931250
  C 1.027360 0.127823 0.335066
  C 2.491075 0.146708 0.347364
  C 3.244387 0.629211 1.525122
  C 2.420079 1.098245 2.715733
  H 3.087016 1.444396 3.501392
  C 3.142318 -0.292244 -0.802551
  C 4.522143 -0.509028 -0.918512
  C 5.159770 -0.928576 -2.060158
  C 4.561130 -1.238216 -3.357205
  H 3.483641 -1.128505 -3.388746
  H 6.230877 -1.071969 -2.001926
  H 0.540844 0.750221 1.072489
  H 0.900200 -0.923119 0.647550
  H 0.591992 0.200008 -0.654941
  H 3.886594 1.451241 1.190684
  H 3.925249 -0.161461 1.857825
  H 1.816039 0.292009 3.123365
  H 1.769736 1.927736 2.449190
  H 2.529244 -0.483665 -1.670975
  H 5.138284 -0.347600 -0.045898
  H 4.835607 -2.254963 -3.646694
  H 5.013893 -0.599795 -4.119441
 22
 12.354760
  C 1.022263 0.210289 0.320079
  C 2.474205 0.172947 0.338027
  C 3.242694 0.619235 1.531004
  C 2.415564 1.092745 2.717377
  H 3.082678 1.421102 3.510172
  C 3.135617 -0.230096 -0.817526
  C 4.503000 -0.500528 -0.915668
  C 5.141554 -0.948834 -2.048870
  C 4.546111 -1.254080 -3.354610
  H 3.469269 -1.133536 -3.389361
  H 6.212766 -1.096773 -1.987483
  H 0.479934 0.696606 1.111527
  H 1.209900 -0.871079 0.629140
  H 0.533678 0.143374 -0.641261
  H 3.889421 1.438516 1.202133
  H 3.900061 -0.189293 1.861841
  H 1.795385 0.293748 3.116888
  H 1.784812 1.937240 2.451497
  H 2.534759 -0.378799 -1.702481
  H 5.117402 -0.346549 -0.040747
  H 4.807607 -2.274041 -3.640861
  H 5.003826 -0.615948 -4.113893
 22
 28.648977
  C 1.008145 0.312694 0.306326
  C 2.426359 0.135986 0.343917
  C 3.231340 0.578856 1.531400
  C 2.420045 1.077040 2.721891
  H 3.099327 1.376659 3.515884
  C 3.103984 -0.257207 -0.834972
  C 4.473450 -0.490676 -0.926892
  C 5.126994 -0.941208 -2.047540
  C 4.543453 -1.272591 -3.355913
  H 3.461411 -1.221452 -3.380337
  H 6.199878 -1.061191 -1.981797
  H 0.463019 0.758576 1.116645
  H 1.521872 -0.814541 0.609851
  H 0.478962 0.149049 -0.619216
  H 3.886798 1.382782 1.191183
  H 3.871190 -0.242028 1.861918
  H 1.771622 0.301172 3.119592
  H 1.822448 1.946004 2.459246
  H 2.502396 -0.424538 -1.716541
  H 5.083171 -0.300630 -0.056166
  H 4.865751 -2.270890 -3.655369
  H 4.949656 -0.595283 -4.109663
 22
 38.537009
  C 0.992418 0.354759 0.305212
  C 2.396304 0.106464 0.363561
  C 3.220062 0.563417 1.551156
  C 2.412039 1.095798 2.729182
  H 3.092718 1.398531 3.520419
  C 3.090865 -0.280304 -0.841556
  C 4.459506 -0.498872 -0.935382
  C 5.115168 -0.933905 -2.059713
  C 4.531857 -1.266131 -3.368012
  H 3.448883 -1.231979 -3.388627
  H 6.189548 -1.037683 -1.998216
  H 0.453055 0.787036 1.126784
  H 1.804105 -0.903610 0.566524
  H 0.447500 0.160043 -0.603742
  H 3.888248 1.351453 1.200405
  H 3.843085 -0.262287 1.898397
  H 1.748855 0.337321 3.137434
  H 1.829941 1.969290 2.448116
  H 2.483509 -0.441160 -1.719814
  H 5.068249 -0.308413 -0.063975
  H 4.868687 -2.257297 -3.674803
  H 4.924639 -0.577707 -4.118798
 22
 41.213980
  C 0.981693 0.395569 0.301789
  C 2.370559 0.071378 0.388696
  C 3.209531 0.553092 1.571877
  C 2.406545 1.116525 2.738948
  H 3.089173 1.420959 3.527099
  C 3.079954 -0.318856 -0.836895
  C 4.446244 -0.519663 -0.936429
  C 5.099708 -0.931356 -2.075526
  C 4.512593 -1.256475 -3.380162
  H 3.429004 -1.261805 -3.389324
  H 6.177208 -1.012765 -2.024830
  H 0.452671 0.865278 1.110344
  H 2.078290 -1.028682 0.506826
  H 0.426801 0.163926 -0.591731
  H 3.884476 1.329585 1.207700
  H 3.822917 -0.270236 1.938974
  H 1.730055 0.373282 3.155198
  H 1.837589 1.994200 2.443488
  H 2.465358 -0.471353 -1.711319
  H 5.056722 -0.329778 -0.065901
  H 4.884564 -2.225605 -3.713816
  H 4.871411 -0.537357 -4.119191
 22
 42.516369
  C 0.986871 0.387037 0.325943
  C 2.356976 0.082017 0.401543
  C 3.199422 0.550061 1.584211
  C 2.402311 1.133547 2.744616
  H 3.087986 1.432024 3.534357
  C 3.060658 -0.332489 -0.830586
  C 4.440223 -0.519001 -0.940887
  C 5.082412 -0.928472 -2.078373
  C 4.487268 -1.255291 -3.380116
  H 3.403695 -1.279783 -3.380106
  H 6.160866 -0.999683 -2.038255
  H 0.465323 0.871627 1.128847
  H 2.333093 -1.088641 0.324346
  H 0.417312 0.135466 -0.552258
  H 3.891437 1.312452 1.222401
  H 3.793895 -0.282562 1.961210
  H 1.713142 0.403472 3.160865
  H 1.848409 2.017865 2.441996
  H 2.442681 -0.472147 -1.705539
  H 5.053184 -0.322391 -0.073056
  H 4.872966 -2.214744 -3.725053
  H 4.825852 -0.523351 -4.116163
 22
 39.362322
  C 0.987031 0.378790 0.348499
  C 2.331482 0.098954 0.419196
  C 3.182817 0.553697 1.584149
  C 2.405572 1.159323 2.748506
  H 3.102154 1.446382 3.532152
  C 3.019352 -0.402956 -0.794317
  C 4.420302 -0.569483 -0.919236
  C 5.061013 -0.929484 -2.066509
  C 4.462053 -1.229513 -3.375386
  H 3.379429 -1.278183 -3.368239
  H 6.140451 -0.986961 -2.034202
  H 0.469571 0.866868 1.151512
  H 2.493283 -1.159848 0.124533
  H 0.402765 0.105513 -0.512816
  H 3.888618 1.299291 1.211483
  H 3.763714 -0.288405 1.963755
  H 1.703791 0.445422 3.172015
  H 1.868619 2.053992 2.445157
  H 2.402791 -0.515228 -1.676129
  H 5.029679 -0.387016 -0.046652
  H 4.865572 -2.168954 -3.753363
  H 4.777605 -0.467200 -4.090617
 22
 29.008302
  C 0.999294 0.376362 0.353527
  C 2.321229 0.110476 0.442790
  C 3.187359 0.556862 1.578801
  C 2.442022 1.218868 2.734294
  H 3.153446 1.494679 3.508938
  C 2.977629 -0.524061 -0.749255
  C 4.405595 -0.649454 -0.887675
  C 5.055161 -0.922049 -2.052563
  C 4.462483 -1.150944 -3.375362
  H 3.380847 -1.218770 -3.372196
  H 6.135385 -0.962605 -2.022265
  H 0.470408 0.891663 1.134877
  H 2.599499 -1.370814 -0.066600
  H 0.416269 0.080520 -0.502150
  H 3.921713 1.261834 1.179627
  H 3.740276 -0.297656 1.976020
  H 1.713901 0.542849 3.175712
  H 1.937821 2.126112 2.411936
  H 2.368932 -0.569397 -1.644958
  H 5.007194 -0.504996 -0.002566
  H 4.884655 -2.056431 -3.812267
  H 4.765570 -0.341610 -4.042685
 22
 20.231817
  C 0.997915 0.362838 0.365686
  C 2.321775 0.119836 0.443609
  C 3.193488 0.549234 1.570466
  C 2.480985 1.265902 2.711615
  H 3.206445 1.544990 3.471431
  C 2.933578 -0.622884 -0.709139
  C 4.381237 -0.703517 -0.852745
  C 5.041588 -0.905306 -2.028430
  C 4.456254 -1.097345 -3.359590
  H 3.375474 -1.178502 -3.363705
  H 6.123324 -0.921015 -1.996892
  H 0.470768 0.908726 1.127056
  H 2.585388 -1.582034 -0.260270
  H 0.406980 0.031069 -0.470704
  H 3.967032 1.205767 1.159154
  H 3.706102 -0.324959 1.981658
  H 1.738472 0.625272 3.179981
  H 1.996919 2.174995 2.364659
  H 2.373766 -0.519147 -1.635098
  H 4.974699 -0.597646 0.042920
  H 4.893165 -1.984134 -3.821558
  H 4.757521 -0.268816 -4.005409
 22
 17.529959
  C 0.970933 0.282157 0.433807
  C 2.310899 0.115372 0.444983
  C 3.193888 0.558727 1.555029
  C 2.505446 1.296884 2.695965
  H 3.249726 1.624166 3.417450
  C 2.908533 -0.597919 -0.724020
  C 4.364926 -0.706297 -0.836677
  C 5.038986 -0.922050 -1.997722
  C 4.471578 -1.081711 -3.340423
  H 3.388463 -1.057410 -3.372924
  H 6.117882 -0.987470 -1.945274
  H 0.442216 0.780849 1.225240
  H 2.516691 -1.618479 -0.543277
  H 0.367539 -0.066155 -0.387298
  H 3.972245 1.199469 1.126610
  H 3.705891 -0.316477 1.967636
  H 1.799551 0.654071 3.215751
  H 1.980388 2.177471 2.334881
  H 2.430187 -0.296991 -1.658334
  H 4.944201 -0.631825 0.070798
  H 4.831799 -2.018174 -3.770871
  H 4.870908 -0.304888 -3.996634
 22
 16.861207
  C 0.966136 0.245924 0.466150
  C 2.312910 0.129175 0.447845
  C 3.192639 0.570690 1.560694
  C 2.499901 1.279340 2.717623
  H 3.241246 1.594038 3.447434
  C 2.917945 -0.496107 -0.764684
  C 4.377109 -0.641234 -0.847975
  C 5.045765 -0.950962 -1.990708
  C 4.463885 -1.178282 -3.317881
  H 3.380636 -1.223533 -3.324104
  H 6.123291 -1.032049 -1.937756
  H 0.428269 0.666465 1.295617
  H 2.475794 -1.506566 -0.820779
  H 0.363363 -0.083081 -0.363607
  H 3.960156 1.230471 1.142412
  H 3.720640 -0.304883 1.953606
  H 1.796767 0.621470 3.222491
  H 1.969479 2.164231 2.375535
  H 2.520933 -0.007223 -1.662799
  H 4.955913 -0.519854 0.053972
  H 4.878408 -2.091948 -3.745503
  H 4.791689 -0.382763 -3.992884
