 17
 0.000000
  C -0.680027 -2.610109 -0.700492
  C -1.759343 -1.584579 -0.365050
  H -2.343137 -1.914771 0.491479
  C -1.189807 -0.222478 -0.078898
  O 0.006913 -0.014739 -0.009484
  C -2.179777 0.887900 0.120437
  H -1.130527 -3.570385 -0.936771
  H -0.003972 -2.748138 0.139180
  H -0.098690 -2.286049 -1.559766
  H -2.427299 -1.478474 -1.223326
  H -3.192998 0.567193 -0.101419
  H -1.921804 1.719582 -0.531077
  H -2.130245 1.226104 1.152850
  O 3.260068 0.187214 0.059984
  H 3.436240 1.149871 0.119949
  H 2.297465 0.011676 0.002354
  H 3.662161 -0.298430 0.810933
 17
 -1.529236
  C -0.678756 -2.652547 -0.705301
  C -1.688250 -1.566419 -0.385645
  H -2.277671 -1.860307 0.487534
  C -1.101261 -0.221398 -0.092559
  O 0.104633 -0.031193 -0.011878
  C -2.071078 0.892442 0.131226
  H -1.154600 -3.594002 -0.944330
  H 0.013079 -2.806002 0.125331
  H -0.046309 -2.325618 -1.546307
  H -2.381635 -1.454689 -1.221023
  H -3.088564 0.588242 -0.081954
  H -1.801716 1.741324 -0.494303
  H -1.998401 1.223478 1.164112
  O 3.052399 0.186699 0.058604
  H 3.194948 1.153642 0.098388
  H 2.085902 0.029040 -0.006419
  H 3.435998 -0.282357 0.819858
 17
 -3.610616
  C -0.631422 -2.668842 -0.704437
  C -1.639065 -1.561760 -0.387225
  H -2.241230 -1.832606 0.490277
  C -1.010449 -0.237560 -0.098674
  O 0.190695 -0.084411 -0.033923
  C -1.964686 0.912716 0.145673
  H -1.152821 -3.591146 -0.935151
  H 0.018698 -2.847665 0.149356
  H -0.015020 -2.393410 -1.568968
  H -2.341425 -1.427379 -1.218045
  H -2.994693 0.635774 -0.040525
  H -1.689370 1.756373 -0.484232
  H -1.862615 1.240775 1.180278
  O 2.870729 0.228743 0.022039
  H 2.929355 1.178821 0.202590
  H 1.909360 0.019201 -0.097662
  H 3.198719 -0.302046 0.783083
 17
 -3.420986
  C -0.616020 -2.666801 -0.691369
  C -1.609837 -1.553579 -0.395271
  H -2.236074 -1.821607 0.461127
  C -0.971975 -0.234732 -0.082913
  O 0.239598 -0.086860 -0.000693
  C -1.903741 0.913780 0.157080
  H -1.145858 -3.582447 -0.938178
  H 0.012168 -2.860726 0.172612
  H 0.015452 -2.400889 -1.533286
  H -2.284505 -1.409283 -1.237281
  H -2.936837 0.648504 -0.038557
  H -1.611655 1.755932 -0.467998
  H -1.804216 1.237715 1.195180
  O 2.735940 0.226916 -0.001631
  H 2.790441 1.183768 0.189852
  H 1.750448 -0.016118 -0.101515
  H 3.100168 -0.298836 0.738394
 17
 -0.567611
  C -0.583089 -2.647435 -0.681427
  C -1.580459 -1.539907 -0.395429
  H -2.221927 -1.813542 0.452389
  C -0.957094 -0.233054 -0.073346
  O 0.258694 -0.076314 0.012732
  C -1.897004 0.922643 0.162606
  H -1.106546 -3.560431 -0.936157
  H 0.034787 -2.844981 0.190782
  H 0.054334 -2.381120 -1.512319
  H -2.242750 -1.393228 -1.242973
  H -2.929306 0.653990 -0.034920
  H -1.602073 1.762114 -0.465876
  H -1.797906 1.251706 1.204783
  O 2.652523 0.184507 -0.019068
  H 2.729395 1.133483 0.163351
  H 1.606933 -0.044388 -0.094650
  H 3.045634 -0.330942 0.709866
 17
 4.010120
  C -0.569717 -2.648759 -0.675905
  C -1.574789 -1.540611 -0.393320
  H -2.217017 -1.814343 0.451758
  C -0.949900 -0.219737 -0.070443
  O 0.263314 -0.064578 0.004975
  C -1.874881 0.924784 0.166548
  H -1.093555 -3.572188 -0.931232
  H 0.045057 -2.840265 0.195623
  H 0.074159 -2.382190 -1.511816
  H -2.237288 -1.397387 -1.243269
  H -2.905213 0.660503 -0.022706
  H -1.581269 1.772131 -0.466948
  H -1.772247 1.253521 1.194850
  O 2.603605 0.176106 -0.017099
  H 2.700854 1.122313 0.181167
  H 1.477060 -0.024593 -0.100173
  H 3.012935 -0.352655 0.690597
 17
 7.695465
  C -0.564078 -2.639104 -0.665037
  C -1.575112 -1.538471 -0.400007
  H -2.227826 -1.813227 0.432840
  C -0.961994 -0.223568 -0.074775
  O 0.257401 -0.067262 0.013524
  C -1.884113 0.922970 0.168116
  H -1.068909 -3.544690 -0.920436
  H 0.035312 -2.826711 0.210325
  H 0.091077 -2.372741 -1.490657
  H -2.231676 -1.397876 -1.267310
  H -2.921053 0.664289 -0.027143
  H -1.590186 1.755725 -0.440839
  H -1.783569 1.246880 1.200077
  O 2.613304 0.157234 -0.024735
  H 2.751902 1.099430 0.139289
  H 1.371570 -0.006442 -0.075534
  H 3.023364 -0.358396 0.686814
 17
 8.896400
  C -0.717344 -2.258698 0.935892
  C -1.534195 -1.551738 -0.139558
  H -2.507057 -1.247584 0.256141
  C -0.880330 -0.339040 -0.696587
  O 0.204518 0.073576 -0.286562
  C -1.602981 0.407369 -1.764314
  H -1.243102 -3.144691 1.279763
  H -0.561424 -1.607558 1.791540
  H 0.246936 -2.570150 0.544856
  H -1.744029 -2.229427 -0.971030
  H -2.504024 -0.103744 -2.083051
  H -0.939156 0.563237 -2.612367
  H -1.866499 1.396329 -1.391214
  O 2.414588 0.559526 0.522836
  H 2.255517 1.098630 1.309999
  H 1.263706 0.210789 0.018984
  H 2.981141 -0.186962 0.761557
 17
 11.300924
  C -0.646652 -2.414643 0.723178
  C -1.528958 -1.574718 -0.190189
  H -2.482472 -1.358330 0.294525
  C -0.929072 -0.276851 -0.597997
  O 0.175017 0.105885 -0.194098
  C -1.724059 0.597074 -1.497881
  H -1.142295 -3.352126 0.960822
  H -0.449907 -1.892693 1.655849
  H 0.297700 -2.647426 0.240130
  H -1.777590 -2.127760 -1.096893
  H -2.633821 0.108767 -1.833939
  H -1.109709 0.892442 -2.350780
  H -1.976736 1.515776 -0.961036
  O 2.485463 0.494559 0.486825
  H 2.433006 0.942812 1.336100
  H 1.173595 0.232909 0.031778
  H 3.050287 -0.284945 0.575365
 17
 14.608451
  C -0.549140 -2.510584 0.513367
  C -1.513593 -1.593309 -0.229767
  H -2.432537 -1.469114 0.357405
  C -0.983526 -0.242071 -0.500386
  O 0.147841 0.103180 -0.129707
  C -1.845600 0.719873 -1.258233
  H -1.004440 -3.482144 0.669920
  H -0.295046 -2.083662 1.478902
  H 0.364218 -2.645974 -0.059721
  H -1.862578 -2.024572 -1.171883
  H -2.761313 0.261853 -1.611450
  H -1.284200 1.142515 -2.087465
  H -2.113934 1.563282 -0.624570
  O 2.562985 0.446535 0.462318
  H 2.647049 0.818493 1.354541
  H 1.100201 0.236561 0.034002
  H 2.989860 -0.410265 0.449160
 17
 18.241067
  C -0.567033 -2.658246 0.244798
  C -1.554162 -1.630209 -0.290741
  H -2.420429 -1.571537 0.370370
  C -1.004014 -0.257960 -0.405703
  O 0.175578 0.013430 -0.081762
  C -1.905517 0.831719 -0.962261
  H -1.037817 -3.634601 0.299728
  H -0.227227 -2.380656 1.241151
  H 0.294177 -2.731744 -0.409854
  H -1.975061 -1.923913 -1.258400
  H -2.851802 0.435499 -1.303271
  H -1.390496 1.358683 -1.760115
  H -2.096085 1.571651 -0.174277
  O 2.704967 0.279758 0.392527
  H 2.944245 1.179551 0.665696
  H 1.091808 0.130566 0.004598
  H 2.929254 -0.320225 1.098721
 17
 21.577849
  C -0.575107 -2.662963 0.066153
  C -1.611084 -1.622684 -0.327577
  H -2.445728 -1.643371 0.361155
  C -1.103079 -0.238544 -0.353657
  O 0.066600 0.041389 -0.041229
  C -2.038287 0.863160 -0.749182
  H -1.023471 -3.651424 0.067721
  H -0.192976 -2.464715 1.064724
  H 0.252215 -2.671162 -0.629919
  H -2.050457 -1.846579 -1.302142
  H -3.000198 0.477939 -1.083807
  H -1.568033 1.474729 -1.528203
  H -2.190674 1.519244 0.100822
  O 2.968065 0.298338 0.362338
  H 3.237870 1.118308 0.787507
  H 0.979374 0.142694 -0.020752
  H 3.302499 -0.424109 0.913187
 17
 25.338538
  C -0.562345 -2.646027 -0.112108
  C -1.661071 -1.614339 -0.366519
  H -2.457720 -1.718043 0.374277
  C -1.189486 -0.217502 -0.269928
  O -0.012272 0.064903 0.032652
  C -2.162471 0.888820 -0.540087
  H -0.971381 -3.649684 -0.146497
  H -0.137133 -2.496004 0.874086
  H 0.240078 -2.589875 -0.851817
  H -2.147747 -1.775359 -1.331246
  H -3.117919 0.509694 -0.884231
  H -1.719061 1.554734 -1.281763
  H -2.316636 1.483372 0.359180
  O 3.179897 0.258117 0.309691
  H 3.507835 1.011626 0.809411
  H 0.881829 0.130676 -0.010588
  H 3.573951 -0.522695 0.709085
 17
 21.070145
  C -0.470499 -2.524542 -0.209897
  C -1.647889 -1.576350 -0.414234
  H -2.480642 -1.836854 0.245493
  C -1.333692 -0.162963 -0.164029
  O -0.212876 0.241937 0.264824
  C -2.388480 0.867645 -0.352892
  H -0.786556 -3.552706 -0.350305
  H -0.091095 -2.431586 0.800297
  H 0.333805 -2.320261 -0.914515
  H -2.043623 -1.669255 -1.431282
  H -3.300494 0.436685 -0.757913
  H -1.997367 1.637445 -1.014363
  H -2.613417 1.374456 0.584080
  O 3.440905 0.052902 0.156377
  H 3.935739 0.671680 0.701062
  H 0.693745 0.191039 0.129395
  H 3.835773 -0.808618 0.312758
