 21
 0.000000
  C 0.833289 0.046383 0.313713
  C 2.320661 0.058201 0.104228
  C 3.228699 -0.010619 1.323961
  C 2.572252 -0.088148 2.697875
  H 3.336645 -0.131575 3.467567
  C 2.914108 0.125298 -1.084850
  C 2.376649 0.204602 -2.490297
  C 0.875760 0.219728 -2.758284
  H 0.703078 0.280169 -3.829466
  H 3.997967 0.125901 -1.095513
  H 0.567283 -0.012880 1.363941
  H 0.381794 -0.814439 -0.172878
  H 0.381795 0.956483 -0.072949
  H 3.876644 0.871324 1.313275
  H 3.876647 -0.885763 1.214129
  H 1.951525 -0.978788 2.784699
  H 1.951529 0.787055 2.884342
  H 2.802748 -0.643098 -3.041011
  H 2.802749 1.108877 -2.942154
  H 0.400882 1.078921 -2.293582
  H 0.400875 -0.686296 -2.393185
 21
 9.972814
  C 0.750849 0.046066 0.319335
  C 2.364050 0.059922 0.073719
  C 3.276177 -0.008138 1.279967
  C 2.567454 -0.092413 2.773443
  H 3.337252 -0.135470 3.536569
  C 2.940809 0.127014 -1.115262
  C 2.394481 0.205961 -2.514384
  C 0.892117 0.220177 -2.766253
  H 0.709175 0.280592 -3.836956
  H 4.025563 0.128094 -1.134378
  H 0.504003 -0.013368 1.372573
  H 0.298672 -0.813926 -0.163200
  H 0.298673 0.954884 -0.063389
  H 3.921580 0.872605 1.270080
  H 3.921584 -0.882178 1.171063
  H 1.950156 -0.981994 2.858710
  H 1.950153 0.781922 2.958247
  H 2.817059 -0.641482 -3.068259
  H 2.817059 1.110336 -2.969410
  H 0.421681 1.078936 -2.296956
  H 0.421677 -0.685928 -2.396541
 21
 30.919987
  C 0.692004 0.044418 0.348526
  C 2.427781 0.061211 0.050841
  C 3.319737 -0.006608 1.252769
  C 2.516023 -0.096479 2.845478
  H 3.300482 -0.138455 3.589593
  C 2.966274 0.130241 -1.172467
  C 2.404201 0.208833 -2.565237
  C 0.896227 0.220380 -2.769841
  H 0.681879 0.280542 -3.836194
  H 4.055727 0.132272 -1.208436
  H 0.526080 -0.015444 1.409332
  H 0.267132 -0.822075 -0.135749
  H 0.267136 0.959893 -0.035193
  H 3.962162 0.872054 1.288659
  H 3.962169 -0.883727 1.189588
  H 1.913959 -0.992748 2.882941
  H 1.913965 0.789885 2.983521
  H 2.820577 -0.636089 -3.127872
  H 2.820580 1.111690 -3.029251
  H 0.440750 1.077124 -2.284104
  H 0.440764 -0.685569 -2.383579
 21
 55.751982
  C 0.621208 0.044675 0.343874
  C 2.479999 0.063021 0.018732
  C 3.361321 -0.004617 1.217549
  C 2.489789 -0.101041 2.926434
  H 3.312573 -0.140402 3.624139
  C 2.975927 0.131881 -1.201618
  C 2.405478 0.210046 -2.586874
  C 0.894954 0.220106 -2.765016
  H 0.660459 0.280171 -3.829491
  H 4.067595 0.134406 -1.246355
  H 0.522786 -0.014969 1.400899
  H 0.247755 -0.828852 -0.159235
  H 0.247757 0.969256 -0.057774
  H 3.983117 0.880304 1.319644
  H 3.983118 -0.895390 1.219453
  H 1.907529 -1.004187 2.912102
  H 1.907540 0.797957 3.013781
  H 2.818451 -0.637129 -3.149697
  H 2.818459 1.115175 -3.050825
  H 0.449769 1.077523 -2.270475
  H 0.449770 -0.687479 -2.370086
 21
 83.368495
  C 0.548901 0.044011 0.355656
  C 2.531498 0.064637 -0.009849
  C 3.407483 -0.002327 1.176974
  C 2.472949 -0.105251 3.000976
  H 3.302850 -0.144025 3.688247
  C 3.009913 0.133806 -1.235637
  C 2.420652 0.211675 -2.615629
  C 0.906111 0.220462 -2.771223
  H 0.655943 0.280061 -3.827424
  H 4.099677 0.137089 -1.293803
  H 0.473071 -0.016758 1.432545
  H 0.181486 -0.835209 -0.150587
  H 0.181486 0.974604 -0.048461
  H 4.025061 0.886739 1.294030
  H 4.025079 -0.898924 1.193274
  H 1.891753 -1.015639 2.974545
  H 1.891741 0.802335 3.077122
  H 2.826254 -0.633749 -3.183247
  H 2.826254 1.115583 -3.084533
  H 0.468162 1.077440 -2.270051
  H 0.468147 -0.687463 -2.369639
 21
 109.398551
  C 0.504954 0.042899 0.375431
  C 2.604013 0.066458 -0.042106
  C 3.449499 -0.000129 1.137996
  C 2.423700 -0.109030 3.067801
  H 3.268130 -0.146442 3.730881
  C 3.044024 0.136110 -1.276474
  C 2.422535 0.213271 -2.643885
  C 0.907059 0.220120 -2.765178
  H 0.630832 0.279352 -3.814968
  H 4.132956 0.141002 -1.363249
  H 0.488900 -0.018260 1.459207
  H 0.166265 -0.841241 -0.135395
  H 0.166269 0.978891 -0.032682
  H 4.044226 0.889201 1.311668
  H 4.044223 -0.903333 1.210520
  H 1.857726 -1.021962 2.996971
  H 1.857701 0.806097 3.100124
  H 2.816113 -0.632458 -3.219225
  H 2.816128 1.118359 -3.120445
  H 0.482141 1.075646 -2.253650
  H 0.482121 -0.687536 -2.353126
 21
 133.103035
  C 0.439241 0.042430 0.383724
  C 2.658480 0.068284 -0.074421
  C 3.495719 0.001936 1.101449
  C 2.401084 -0.113483 3.146771
  H 3.251270 -0.150533 3.803486
  C 3.079201 0.138401 -1.317041
  C 2.434638 0.214786 -2.670734
  C 0.915535 0.219983 -2.762733
  H 0.619059 0.278871 -3.806434
  H 4.166553 0.144420 -1.423728
  H 0.442579 -0.018444 1.462463
  H 0.105047 -0.843762 -0.127002
  H 0.105047 0.980454 -0.024063
  H 4.082687 0.894595 1.293976
  H 4.082700 -0.906714 1.192339
  H 1.838175 -1.028589 3.065344
  H 1.838155 0.804981 3.168806
  H 2.818651 -0.630481 -3.252992
  H 2.818651 1.120174 -3.154210
  H 0.498999 1.076517 -2.242040
  H 0.498985 -0.689694 -2.341694
 21
 150.964013
  C 0.481233 0.042271 0.386582
  C 2.781780 0.071137 -0.124972
  C 3.534649 0.004230 1.060839
  C 2.303950 -0.117872 3.224664
  H 3.163661 -0.154342 3.871126
  C 3.130869 0.142425 -1.388356
  C 2.417515 0.216914 -2.708405
  C 0.896974 0.218004 -2.727685
  H 0.548965 0.276224 -3.759679
  H 4.213622 0.152074 -1.559454
  H 0.542506 -0.017514 1.446032
  H 0.160362 -0.848855 -0.122545
  H 0.160367 0.985011 -0.019054
  H 4.072541 0.897021 1.348393
  H 4.072540 -0.915220 1.246134
  H 1.756487 -1.031262 3.100027
  H 1.756500 0.803697 3.203571
  H 2.774428 -0.631629 -3.307671
  H 2.774433 1.127455 -3.208424
  H 0.504272 1.071799 -2.186356
  H 0.504273 -0.691252 -2.285828
 21
 164.311208
  C 0.493117 0.041290 0.403864
  C 2.864994 0.073693 -0.170401
  C 3.568422 0.006892 1.013470
  C 2.234546 -0.123339 3.321544
  H 3.099312 -0.159074 3.954924
  C 3.161614 0.145472 -1.442449
  C 2.409288 0.219039 -2.746048
  C 0.891204 0.217955 -2.726808
  H 0.517176 0.275589 -3.748362
  H 4.236133 0.156945 -1.645874
  H 0.597240 -0.018618 1.465408
  H 0.167822 -0.848729 -0.098656
  H 0.167832 0.982185 0.004676
  H 4.074455 0.897078 1.348286
  H 4.074454 -0.915280 1.246016
  H 1.694271 -1.035139 3.183183
  H 1.694261 0.798237 3.286629
  H 2.751315 -0.627707 -3.354449
  H 2.751344 1.128865 -3.255366
  H 0.512314 1.069468 -2.176128
  H 0.512304 -0.690105 -2.275395
 21
 172.225934
  C 0.516950 0.040625 0.414957
  C 2.955295 0.076752 -0.224794
  C 3.614041 0.009520 0.967055
  C 2.144582 -0.127972 3.403765
  H 3.003604 -0.163631 4.036136
  C 3.198051 0.149153 -1.507912
  C 2.398880 0.221086 -2.782518
  C 0.884314 0.216315 -2.697114
  H 0.466613 0.272848 -3.699066
  H 4.261189 0.162587 -1.746216
  H 0.664722 -0.019317 1.477150
  H 0.185143 -0.845065 -0.078981
  H 0.185125 0.976262 0.023799
  H 4.084981 0.901598 1.349600
  H 4.085030 -0.919906 1.246837
  H 1.609590 -1.039975 3.250159
  H 1.609531 0.795536 3.353704
  H 2.718395 -0.623735 -3.402401
  H 2.718449 1.130256 -3.303428
  H 0.528030 1.067338 -2.129882
  H 0.527973 -0.693093 -2.229196
 21
 175.734011
  C 0.527657 0.039163 0.442353
  C 3.031088 0.079759 -0.277740
  C 3.644031 0.012423 0.915248
  C 2.061255 -0.132794 3.489089
  H 2.928960 -0.168051 4.113804
  C 3.226791 0.152594 -1.568364
  C 2.394610 0.222628 -2.809631
  C 0.881188 0.214981 -2.674894
  H 0.429701 0.270821 -3.664304
  H 4.285355 0.167822 -1.837890
  H 0.727470 -0.020169 1.493769
  H 0.184042 -0.850419 -0.043458
  H 0.184069 0.977767 0.059700
  H 4.078839 0.904522 1.339535
  H 4.078823 -0.921751 1.236476
  H 1.528516 -1.047828 3.327721
  H 1.528552 0.794567 3.431686
  H 2.697447 -0.621655 -3.440084
  H 2.697390 1.132501 -3.341061
  H 0.541035 1.068944 -2.094078
  H 0.541094 -0.698921 -2.193897
 21
 174.475114
  C 0.569896 0.036513 0.490910
  C 3.115901 0.083245 -0.339201
  C 3.668491 0.015307 0.861974
  C 1.956320 -0.137645 3.575688
  H 2.838521 -0.171745 4.176996
  C 3.260354 0.156351 -1.633234
  C 2.380810 0.224852 -2.847562
  C 0.873995 0.213695 -2.654936
  H 0.384883 0.268344 -3.622499
  H 4.309238 0.173627 -1.936770
  H 0.852803 -0.021616 1.520156
  H 0.210203 -0.853744 0.021022
  H 0.210304 0.974045 0.124222
  H 4.030232 0.909722 1.349770
  H 4.029923 -0.928457 1.245953
  H 1.427604 -1.052788 3.409508
  H 1.427862 0.790633 3.513590
  H 2.661869 -0.618364 -3.492794
  H 2.661569 1.135437 -3.393669
  H 0.556547 1.062890 -2.063823
  H 0.556859 -0.696829 -2.163381
 21
 114.047171
  C 1.001722 0.199970 0.198952
  C 2.529501 0.136589 -0.114063
  C 3.343428 -0.082751 1.089664
  C 2.263896 -0.145369 3.651228
  H 3.203949 -0.326723 4.160908
  C 2.930224 0.217165 -1.373242
  C 2.294790 0.269889 -2.726388
  C 0.790267 0.061302 -2.901865
  H 0.536436 0.153706 -3.953719
  H 4.016421 0.291997 -1.479001
  H 0.962289 0.152519 1.289393
  H 0.546092 -0.661534 -0.271260
  H 0.664293 1.151895 -0.189810
  H 3.793238 0.740801 1.613748
  H 3.505364 -1.077099 1.460927
  H 1.622558 -0.980945 3.479764
  H 1.890475 0.854383 3.637025
  H 2.813929 -0.494895 -3.324167
  H 2.575507 1.239080 -3.168213
  H 0.208076 0.794421 -2.359435
  H 0.491728 -0.930925 -2.578523
