 9
 0.000000
  C 0.916517 0.049356 0.254685
  C 2.404220 0.059006 0.077392
  H 2.995536 0.011769 0.981483
  C 3.004804 0.124113 -1.095933
  H 2.463636 0.173529 -2.026618
  H 4.078306 0.130507 -1.185530
  H 0.646737 -0.017893 1.305906
  H 0.472183 -0.800690 -0.260935
  H 0.473971 0.959962 -0.147058
 9
 5.494892
  C 0.916067 -0.002304 0.271606
  C 2.364136 0.061496 0.082512
  H 2.990911 0.039993 0.987809
  C 2.969083 0.132830 -1.090080
  H 2.411419 0.142667 -2.014579
  H 4.039874 0.198268 -1.180207
  H 0.603636 -0.024879 1.312767
  H 0.433018 -0.807033 -0.282660
  H 0.725713 0.948702 -0.185094
 9
 18.122984
  C 0.900193 -0.036939 0.284220
  C 2.337959 0.068355 0.083846
  H 2.999342 0.068236 0.993482
  C 2.944157 0.140287 -1.090143
  H 2.390162 0.108880 -2.016660
  H 4.006879 0.255008 -1.177695
  H 0.562602 -0.030454 1.309523
  H 0.396692 -0.800913 -0.302353
  H 0.926669 0.924162 -0.188131
 9
 32.117690
  C 0.880191 -0.064363 0.296642
  C 2.313462 0.086826 0.067144
  H 2.975479 0.129554 0.979726
  C 2.934445 0.138025 -1.104737
  H 2.406979 0.053663 -2.033242
  H 4.000082 0.294724 -1.177086
  H 0.551546 -0.074670 1.320903
  H 0.349829 -0.764251 -0.331340
  H 1.076216 0.908088 -0.130785
 9
 43.644928
  C 0.868883 -0.090216 0.304453
  C 2.300377 0.102554 0.050409
  H 2.939671 0.211063 0.974179
  C 2.937281 0.139319 -1.118706
  H 2.420707 -0.009501 -2.053149
  H 3.995599 0.317306 -1.180492
  H 0.554811 -0.137212 1.331848
  H 0.304890 -0.712541 -0.368672
  H 1.201751 0.900715 -0.058385
 9
 52.519780
  C 0.863697 -0.111352 0.311769
  C 2.288959 0.121539 0.041841
  H 2.911941 0.270724 0.968291
  C 2.939034 0.135323 -1.129794
  H 2.433809 -0.053022 -2.060079
  H 3.994047 0.334445 -1.185617
  H 0.556219 -0.184784 1.337339
  H 0.279137 -0.670158 -0.395073
  H 1.300034 0.895542 -0.008445
 9
 59.457256
  C 0.862923 -0.132957 0.316492
  C 2.283649 0.147871 0.043934
  H 2.905857 0.319149 0.968623
  C 2.940123 0.129591 -1.133842
  H 2.438074 -0.102165 -2.055164
  H 3.990133 0.351592 -1.196668
  H 0.550859 -0.234143 1.336641
  H 0.268181 -0.621309 -0.428925
  H 1.376844 0.900161 0.030695
 9
 65.348045
  C 0.866626 -0.158181 0.322080
  C 2.280347 0.170271 0.046708
  H 2.902071 0.352933 0.969641
  C 2.945230 0.124799 -1.135837
  H 2.439152 -0.110165 -2.054573
  H 3.992968 0.351370 -1.200398
  H 0.544109 -0.254824 1.337392
  H 0.264951 -0.603588 -0.446258
  H 1.436598 0.906674 0.043997
 9
 70.217062
  C 0.874109 -0.186283 0.324725
  C 2.277735 0.190741 0.050864
  H 2.907365 0.363196 0.974397
  C 2.946925 0.126419 -1.137478
  H 2.442644 -0.130900 -2.050584
  H 3.991934 0.365720 -1.204088
  H 0.534651 -0.264740 1.336564
  H 0.267938 -0.586947 -0.460802
  H 1.487972 0.927929 0.048341
 9
 73.993463
  C 0.884985 -0.219000 0.329059
  C 2.275535 0.208084 0.055965
  H 2.908110 0.373382 0.981640
  C 2.952103 0.128824 -1.138948
  H 2.442706 -0.123854 -2.050551
  H 3.996875 0.363753 -1.206181
  H 0.528046 -0.262345 1.334959
  H 0.272423 -0.590553 -0.467390
  H 1.534139 0.957608 0.040746
 9
 76.329696
  C 0.901338 -0.259529 0.332571
  C 2.272478 0.225091 0.062380
  H 2.908480 0.371640 0.985536
  C 2.954479 0.133512 -1.141071
  H 2.444023 -0.124474 -2.049283
  H 3.999080 0.374066 -1.207370
  H 0.518811 -0.251975 1.332240
  H 0.280224 -0.593279 -0.471764
  H 1.582549 1.000719 0.029954
 9
 77.885733
  C 0.917212 -0.298888 0.336916
  C 2.268069 0.245465 0.068895
  H 2.907076 0.377007 0.991570
  C 2.957105 0.143370 -1.144273
  H 2.442840 -0.113480 -2.050751
  H 4.003312 0.374012 -1.208465
  H 0.513770 -0.240112 1.326881
  H 0.289981 -0.606599 -0.474722
  H 1.631699 1.049989 0.016403
 9
 76.280663
  C 0.944268 -0.363747 0.351939
  C 2.251398 0.262676 0.076470
  H 2.902291 0.358348 0.986544
  C 2.956275 0.152192 -1.149336
  H 2.446808 -0.105044 -2.057154
  H 4.000396 0.396713 -1.206508
  H 0.492909 -0.208906 1.313423
  H 0.304116 -0.634900 -0.465377
  H 1.707564 1.144576 -0.004897
 9
 76.725906
  C 0.958370 -0.380048 0.354641
  C 2.245986 0.286401 0.079292
  H 2.898380 0.367652 0.987678
  C 2.958879 0.168273 -1.153870
  H 2.448770 -0.098230 -2.058945
  H 3.998020 0.431111 -1.213660
  H 0.490947 -0.190521 1.303889
  H 0.323210 -0.658370 -0.464782
  H 1.770530 1.195846 -0.024781
