17

H 1.383381002187645 0.13751508375227106 0.39396248068811307
C 2.453375 0.139016 0.397217
H 3.016646875908817 0.47831752258824867 1.2413137187351568
C 3.076024 -0.32327 -0.753673
C 4.453249 -0.411403 -0.973692
C 5.122105 -0.863817 -2.10158
C 4.620961 -1.386328 -3.404376
C 3.129066 -1.502849 -3.695824
H 2.968939576466466 -1.8966623811002985 -4.677745865197385
O 6.447962 -0.861715 -2.096491
H 2.423198 -0.642598 -1.548589
H 5.080603 -0.082721 -0.155142
H 5.075054 -2.375873 -3.531538
H 5.075478 -0.75923 -4.180113
H 2.654679 -0.521941 -3.641507
H 2.654222 -2.174087 -2.9788
H 6.824556 -0.527091 -1.261029
