 16
 0.000000
  H 1.425645 0.196104 0.539650
  C 2.489935 0.136821 0.392292
  H 3.136021 0.458378 1.192926
  C 2.996346 -0.334019 -0.780440
  C 4.390709 -0.416802 -0.986617
  C 5.071208 -0.863465 -2.100519
  C 4.617681 -1.377702 -3.383170
  C 3.149426 -1.512461 -3.719659
  H 3.044697 -1.915093 -4.723904
  H 6.152784 -0.833362 -2.025160
  H 2.314958 -0.644460 -1.554136
  H 5.001673 -0.083814 -0.156249
  H 5.113888 -2.353811 -3.513217
  H 5.114241 -0.762131 -4.151552
  H 2.646048 -0.548304 -3.692270
  H 2.645904 -2.190577 -3.033840
 16
 8.312612
  H 1.377299 0.211453 0.577685
  C 2.437869 0.143020 0.407720
  H 3.100349 0.459730 1.196818
  C 2.910856 -0.326202 -0.761281
  C 4.459774 -0.424783 -1.006462
  C 5.115152 -0.871715 -2.121136
  C 4.637338 -1.383723 -3.398252
  C 3.164864 -1.507744 -3.707715
  H 3.038482 -1.909509 -4.709773
  H 6.197853 -0.847111 -2.059477
  H 2.225852 -0.633908 -1.528555
  H 5.070894 -0.093746 -0.180692
  H 5.126356 -2.362428 -3.539504
  H 5.126632 -0.773965 -4.176563
  H 2.668938 -0.539688 -3.670361
  H 2.668896 -2.181864 -3.011960
 16
 25.563842
  H 1.356138 0.238542 0.645265
  C 2.406715 0.150485 0.426414
  H 3.097252 0.457398 1.191717
  C 2.809325 -0.319182 -0.744171
  C 4.514409 -0.429827 -1.019080
  C 5.149309 -0.879488 -2.140673
  C 4.657523 -1.390397 -3.414958
  C 3.181074 -1.507520 -3.707054
  H 3.036076 -1.908380 -4.706553
  H 6.232267 -0.857128 -2.084587
  H 2.147410 -0.630928 -1.521822
  H 5.082128 -0.089592 -0.170167
  H 5.145630 -2.367415 -3.572961
  H 5.145900 -0.793552 -4.204345
  H 2.690361 -0.536530 -3.658146
  H 2.690287 -2.175649 -3.000737
 16
 45.409376
  H 1.304453 0.257157 0.691745
  C 2.351604 0.159169 0.448108
  H 3.059359 0.461737 1.202831
  C 2.724529 -0.316840 -0.738498
  C 4.583653 -0.443851 -1.054074
  C 5.191831 -0.889840 -2.166523
  C 4.677864 -1.395170 -3.426817
  C 3.199553 -1.498979 -3.685704
  H 3.027821 -1.898395 -4.681473
  H 6.278408 -0.872984 -2.124201
  H 2.065134 -0.630476 -1.520982
  H 5.141539 -0.102494 -0.202305
  H 5.157080 -2.375945 -3.595975
  H 5.157317 -0.803389 -4.226882
  H 2.719137 -0.523772 -3.623851
  H 2.719047 -2.161095 -2.967093
 16
 58.133878
  H 1.297218 0.266721 0.752040
  C 2.344098 0.165795 0.468755
  H 3.041747 0.487333 1.226542
  C 2.647850 -0.290483 -0.686239
  C 4.655498 -0.451308 -1.064744
  C 5.170014 -0.887389 -2.156965
  C 4.704366 -1.414984 -3.475072
  C 3.203135 -1.504668 -3.698937
  H 3.024308 -1.906526 -4.692135
  H 6.268456 -0.864210 -2.128038
  H 2.102852 -0.629959 -1.539588
  H 5.109209 -0.101668 -0.161042
  H 5.163403 -2.396087 -3.628329
  H 5.164317 -0.811837 -4.262824
  H 2.740131 -0.523856 -3.637370
  H 2.737453 -2.166072 -2.972618
 16
 67.974678
  H 1.251708 0.274094 0.809972
  C 2.291977 0.173489 0.498991
  H 3.000845 0.514504 1.237908
  C 2.562715 -0.290747 -0.652908
  C 4.721698 -0.455674 -1.088652
  C 5.207342 -0.900212 -2.183755
  C 4.730073 -1.428002 -3.496621
  C 3.219000 -1.492785 -3.695372
  H 3.017197 -1.897228 -4.684444
  H 6.308292 -0.881434 -2.169190
  H 2.039866 -0.646697 -1.509885
  H 5.152909 -0.096414 -0.179030
  H 5.169512 -2.420470 -3.645820
  H 5.187450 -0.829658 -4.292113
  H 2.775402 -0.502067 -3.633035
  H 2.755738 -2.143967 -2.958384
 16
 75.675189
  H 1.207831 0.284447 0.870392
  C 2.240239 0.181636 0.529319
  H 2.962535 0.538501 1.247324
  C 2.476227 -0.293372 -0.620668
  C 4.786584 -0.458608 -1.113127
  C 5.246227 -0.912493 -2.210936
  C 4.753285 -1.441094 -3.518467
  C 3.237741 -1.479898 -3.691609
  H 3.011040 -1.885397 -4.674375
  H 6.349526 -0.899662 -2.209084
  H 1.975858 -0.667028 -1.482522
  H 5.191067 -0.087805 -0.197363
  H 5.170895 -2.441666 -3.663447
  H 5.206389 -0.851062 -4.319962
  H 2.815355 -0.481126 -3.627544
  H 2.778327 -2.119901 -2.943803
 16
 81.489942
  H 1.164955 0.296593 0.926771
  C 2.187755 0.189572 0.555942
  H 2.924093 0.556759 1.254379
  C 2.389618 -0.295988 -0.592162
  C 4.851641 -0.461934 -1.138558
  C 5.287802 -0.924431 -2.239226
  C 4.776264 -1.452963 -3.539126
  C 3.256252 -1.466550 -3.682659
  H 3.001346 -1.871830 -4.658945
  H 6.392691 -0.918443 -2.250232
  H 1.914540 -0.685095 -1.459298
  H 5.225140 -0.080313 -0.216372
  H 5.173190 -2.462090 -3.681370
  H 5.223504 -0.869520 -4.348344
  H 2.854068 -0.459444 -3.614252
  H 2.803443 -2.096977 -2.922776
 16
 85.745365
  H 1.121762 0.312529 0.978722
  C 2.133903 0.198627 0.578938
  H 2.885448 0.565131 1.261700
  C 2.302819 -0.293294 -0.569261
  C 4.917090 -0.467689 -1.163962
  C 5.332132 -0.935528 -2.268742
  C 4.798243 -1.462450 -3.559743
  C 3.275412 -1.455981 -3.666947
  H 2.989508 -1.858500 -4.635578
  H 6.438126 -0.936330 -2.294075
  H 1.853836 -0.691554 -1.444830
  H 5.257215 -0.078933 -0.233874
  H 5.177566 -2.477428 -3.703074
  H 5.234012 -0.882226 -4.376511
  H 2.890253 -0.443230 -3.589605
  H 2.835460 -2.080459 -2.895009
 16
 88.777219
  H 1.077088 0.331955 1.027417
  C 2.077945 0.209119 0.601081
  H 2.844886 0.566410 1.271923
  C 2.216309 -0.284525 -0.548763
  C 4.982829 -0.476055 -1.188931
  C 5.378416 -0.945759 -2.298722
  C 4.819911 -1.469715 -3.580332
  C 3.294853 -1.449014 -3.647147
  H 2.977611 -1.847196 -4.607918
  H 6.484632 -0.953265 -2.340148
  H 1.792010 -0.685539 -1.433727
  H 5.291057 -0.084095 -0.251068
  H 5.185661 -2.488602 -3.728210
  H 5.240039 -0.888972 -4.404414
  H 2.922665 -0.432289 -3.557624
  H 2.872102 -2.071443 -2.863827
 16
 90.925798
  H 1.030341 0.353031 1.073406
  C 2.019785 0.220294 0.622994
  H 2.801837 0.564064 1.283994
  C 2.130392 -0.271929 -0.529422
  C 5.049031 -0.486381 -1.213609
  C 5.426478 -0.955702 -2.329134
  C 4.840756 -1.475426 -3.600301
  C 3.314798 -1.443890 -3.623969
  H 2.965999 -1.836694 -4.575892
  H 6.532223 -0.970166 -2.388605
  H 1.728398 -0.672068 -1.424331
  H 5.328204 -0.093673 -0.268229
  H 5.195140 -2.496814 -3.755096
  H 5.242411 -0.892251 -4.431299
  H 2.953772 -0.424673 -3.520487
  H 2.911911 -2.066056 -2.830100
 16
 92.392724
  H 0.979932 0.373062 1.117458
  C 1.958198 0.231110 0.645860
  H 2.755051 0.563167 1.295821
  C 2.045305 -0.259792 -0.509683
  C 5.115808 -0.497364 -1.238604
  C 5.478047 -0.966424 -2.360058
  C 4.860621 -1.480558 -3.618117
  C 3.335273 -1.437533 -3.598774
  H 2.954544 -1.824876 -4.540781
  H 6.582288 -0.988643 -2.439187
  H 1.658968 -0.658269 -1.411358
  H 5.373229 -0.104853 -0.288147
  H 5.203363 -2.504723 -3.780592
  H 5.244113 -0.895856 -4.456705
  H 2.986027 -0.415542 -3.481589
  H 2.951630 -2.058516 -2.794259
 16
 93.366572
  H 0.928347 0.392411 1.161111
  C 1.895445 0.241736 0.669635
  H 2.706180 0.563940 1.308096
  C 1.960617 -0.247706 -0.487718
  C 5.182343 -0.508627 -1.263698
  C 5.529245 -0.977329 -2.389814
  C 4.879802 -1.485815 -3.634770
  C 3.356201 -1.429970 -3.572870
  H 2.944522 -1.811734 -4.503956
  H 6.631137 -1.008019 -2.489232
  H 1.588374 -0.645138 -1.395573
  H 5.420285 -0.116188 -0.308792
  H 5.210064 -2.512650 -3.804424
  H 5.245662 -0.900494 -4.480479
  H 3.019959 -0.405171 -3.443134
  H 2.990894 -2.048892 -2.758232
 16
 93.940327
  H 0.874186 0.411188 1.203899
  C 1.830623 0.252602 0.694544
  H 2.654228 0.566089 1.321617
  C 1.876385 -0.235361 -0.464434
  C 5.248992 -0.520222 -1.288381
  C 5.581011 -0.988752 -2.419155
  C 4.898093 -1.490774 -3.649502
  C 3.377509 -1.421202 -3.545269
  H 2.935140 -1.797188 -4.464663
  H 6.679979 -1.028579 -2.539849
  H 1.515871 -0.631571 -1.377111
  H 5.471057 -0.128233 -0.330143
  H 5.215247 -2.520442 -3.826496
  H 5.246626 -0.905397 -4.502424
  H 3.055162 -0.393407 -3.403571
  H 3.030005 -2.037512 -2.720768
