 29
 0.000000
  C 0.952187 0.128420 0.409585
  C 2.427551 0.132439 0.400847
  C 3.222046 0.606996 1.557287
  C 2.460491 1.101895 2.782695
  C 3.434054 1.548230 3.868792
  C 3.042636 -0.335683 -0.757285
  C 4.420369 -0.414808 -0.958023
  C 5.104487 -0.864879 -2.083795
  C 4.606801 -1.380270 -3.386861
  C 3.121485 -1.494586 -3.691874
  H 2.989294 -1.888018 -4.688328
  O 6.423940 -0.867646 -2.069892
  H 0.525979 0.505483 1.331374
  H 0.587629 -0.885871 0.238986
  H 0.575424 0.723193 -0.423929
  H 3.878239 1.414538 1.214890
  H 3.886206 -0.204561 1.873886
  H 1.829709 0.306443 3.183489
  H 1.822082 1.946217 2.516578
  H 4.073260 0.725179 4.181125
  H 2.891375 1.901039 4.742470
  H 4.065655 2.360653 3.515813
  H 2.384389 -0.656959 -1.544826
  H 5.052635 -0.086988 -0.141742
  H 5.069289 -2.365560 -3.513935
  H 5.076378 -0.753411 -4.153301
  H 2.644766 -0.517061 -3.644778
  H 2.637759 -2.172457 -2.990752
  H 6.828063 -0.539634 -1.246954
 29
 2.007554
  C 1.056080 0.092587 0.341854
  C 2.521891 0.204625 0.400585
  C 3.262796 0.668250 1.583489
  C 2.431430 1.101920 2.792813
  C 3.338617 1.562496 3.932217
  C 3.156041 -0.247452 -0.763307
  C 4.510398 -0.385291 -0.961754
  C 5.097548 -0.894548 -2.102028
  C 4.525945 -1.408983 -3.373309
  C 3.026792 -1.473914 -3.621358
  H 2.869035 -1.886734 -4.612744
  O 6.421110 -0.953699 -2.160048
  H 0.545760 0.299396 1.265918
  H 0.868062 -0.933773 -0.006790
  H 0.660004 0.739242 -0.432248
  H 3.903552 1.508650 1.280069
  H 3.951267 -0.128238 1.898343
  H 1.820504 0.270238 3.146554
  H 1.768125 1.923008 2.516943
  H 3.999612 0.760182 4.252196
  H 2.744693 1.869380 4.789761
  H 3.948576 2.409654 3.626555
  H 2.506973 -0.552435 -1.561233
  H 5.178274 -0.083306 -0.170956
  H 4.951499 -2.412203 -3.497731
  H 4.992924 -0.811218 -4.165534
  H 2.572284 -0.486947 -3.605403
  H 2.529750 -2.131360 -2.912751
  H 6.874316 -0.647279 -1.358710
 29
 6.728306
  C 1.172407 0.065110 0.249966
  C 2.616697 0.289440 0.393874
  C 3.299483 0.739713 1.618425
  C 2.401688 1.087456 2.804461
  C 3.235625 1.549279 3.998158
  C 3.277160 -0.119129 -0.749485
  C 4.622352 -0.324226 -0.961010
  C 5.089870 -0.910242 -2.116041
  C 4.429500 -1.446639 -3.339973
  C 2.923441 -1.487157 -3.558202
  H 2.744939 -1.943723 -4.531049
  O 6.405130 -1.031191 -2.269624
  H 0.598048 0.098434 1.163133
  H 1.145957 -0.907426 -0.253894
  H 0.746395 0.778452 -0.460776
  H 3.912752 1.614330 1.367339
  H 4.013097 -0.035219 1.924138
  H 1.817230 0.211844 3.101320
  H 1.707189 1.885001 2.525514
  H 3.922791 0.768368 4.318177
  H 2.591576 1.794851 4.839573
  H 3.815070 2.436129 3.749073
  H 2.639801 -0.399206 -1.567746
  H 5.341619 -0.054665 -0.202391
  H 4.820147 -2.466835 -3.438185
  H 4.886708 -0.895196 -4.170479
  H 2.485706 -0.491870 -3.588999
  H 2.421326 -2.104520 -2.816411
  H 6.930392 -0.740033 -1.502463
 29
 14.225557
  C 1.313028 0.044023 0.140112
  C 2.721850 0.388947 0.366762
  C 3.332273 0.817485 1.634183
  C 2.367083 1.052637 2.796223
  C 3.117885 1.508805 4.041762
  C 3.416563 0.040405 -0.770427
  C 4.734489 -0.261528 -0.981158
  C 5.079412 -0.928299 -2.134415
  C 4.328579 -1.489916 -3.291099
  C 2.815259 -1.488300 -3.431461
  H 2.575106 -1.999385 -4.359464
  O 6.382185 -1.111577 -2.362506
  H 0.706805 -0.095806 1.025351
  H 1.437672 -0.856790 -0.475585
  H 0.837164 0.789266 -0.496859
  H 3.904262 1.739088 1.448367
  H 4.082981 0.069825 1.930904
  H 1.830507 0.134326 3.027119
  H 1.637405 1.812738 2.522758
  H 3.839058 0.759480 4.356454
  H 2.426161 1.674259 4.862853
  H 3.648072 2.439193 3.857319
  H 2.799561 -0.175551 -1.621162
  H 5.500742 -0.051486 -0.245946
  H 4.674888 -2.527597 -3.354193
  H 4.760668 -1.002405 -4.171732
  H 2.405921 -0.488620 -3.511531
  H 2.333979 -2.036719 -2.630607
  H 6.964627 -0.826010 -1.634155
 29
 24.007635
  C 1.439609 0.000938 0.055292
  C 2.797727 0.501060 0.331612
  C 3.354879 0.915349 1.629673
  C 2.355882 1.003061 2.784392
  C 3.044429 1.463209 4.064892
  C 3.502993 0.218308 -0.817233
  C 4.794425 -0.176464 -1.013599
  C 5.044796 -0.948706 -2.125915
  C 4.246509 -1.532920 -3.237407
  C 2.729462 -1.460175 -3.349896
  H 2.443777 -2.015434 -4.237890
  O 6.339707 -1.235267 -2.344404
  H 0.851407 -0.289935 0.911247
  H 1.731639 -0.837058 -0.620535
  H 0.876965 0.721231 -0.538047
  H 3.845418 1.889261 1.500152
  H 4.164374 0.225971 1.900998
  H 1.902290 0.027610 2.960434
  H 1.561746 1.706954 2.533856
  H 3.827322 0.769052 4.355906
  H 2.329819 1.523109 4.879478
  H 3.488622 2.445896 3.935899
  H 2.895366 0.043738 -1.693478
  H 5.580113 -0.010483 -0.295854
  H 4.538268 -2.590374 -3.244446
  H 4.688076 -1.119911 -4.152379
  H 2.363502 -0.443559 -3.486571
  H 2.236124 -1.935310 -2.502643
  H 6.934451 -0.983977 -1.616860
 29
 29.973309
  C 1.578005 -0.193905 0.040685
  C 2.798170 0.643422 0.253902
  C 3.336619 1.074872 1.548626
  C 2.406389 0.913754 2.748656
  C 3.072462 1.425719 4.019038
  C 3.494048 0.532618 -0.947128
  C 4.758923 -0.020067 -1.047871
  C 4.963791 -0.989333 -2.007536
  C 4.173126 -1.570499 -3.135184
  C 2.697383 -1.301994 -3.396343
  H 2.413548 -1.882835 -4.270656
  O 6.181831 -1.555746 -2.041877
  H 1.157094 -0.612898 0.941418
  H 2.007525 -0.967777 -0.648297
  H 0.808296 0.351238 -0.500586
  H 3.628931 2.128078 1.466864
  H 4.272837 0.539898 1.739197
  H 2.144280 -0.135588 2.890424
  H 1.486162 1.474249 2.576443
  H 3.979765 0.868251 4.232947
  H 2.404352 1.317433 4.867551
  H 3.329989 2.477028 3.927807
  H 2.889319 0.370304 -1.823018
  H 5.502268 0.109310 -0.280701
  H 4.316731 -2.652994 -3.039973
  H 4.736192 -1.291603 -4.035019
  H 2.490884 -0.261812 -3.632244
  H 2.068907 -1.638783 -2.576614
  H 6.737661 -1.359164 -1.268392
 29
 36.420740
  C 1.760948 -0.389810 0.051206
  C 2.821997 0.637415 0.235949
  C 3.322001 1.152110 1.513834
  C 2.474160 0.833712 2.746331
  C 3.075898 1.472599 3.992529
  C 3.458380 0.639549 -1.004892
  C 4.703858 0.031355 -1.072808
  C 4.852277 -1.056622 -1.903472
  C 4.081801 -1.604724 -3.077985
  C 2.697980 -1.125182 -3.518058
  H 2.416133 -1.708297 -4.385386
  O 5.977450 -1.772408 -1.789916
  H 1.450443 -0.849604 0.964433
  H 2.274997 -1.107888 -0.615618
  H 0.895041 0.003904 -0.458937
  H 3.422226 2.241342 1.420069
  H 4.348082 0.794601 1.679868
  H 2.419448 -0.239698 2.899845
  H 1.463001 1.210677 2.605887
  H 4.077640 1.095343 4.177956
  H 2.467002 1.250348 4.864336
  H 3.130612 2.553305 3.889040
  H 2.824647 0.535480 -1.880111
  H 5.423591 0.157453 -0.275789
  H 4.049222 -2.687391 -2.915244
  H 4.765532 -1.462889 -3.927629
  H 2.698827 -0.083832 -3.829362
  H 1.936066 -1.294467 -2.764260
  H 6.517080 -1.545509 -1.015978
 29
 43.224428
  C 1.920812 -0.493585 0.023592
  C 2.855890 0.639338 0.205577
  C 3.280081 1.233509 1.470496
  C 2.582035 0.724250 2.730297
  C 3.056557 1.494838 3.953624
  C 3.478436 0.723473 -1.040761
  C 4.696725 0.054738 -1.098146
  C 4.742365 -1.119331 -1.819023
  C 3.969394 -1.641775 -2.998891
  C 2.722215 -0.969927 -3.563490
  H 2.411731 -1.541342 -4.434574
  O 5.749681 -1.982213 -1.568256
  H 1.636426 -0.947492 0.958274
  H 2.533435 -1.202301 -0.610971
  H 1.017882 -0.217212 -0.517873
  H 3.120267 2.318675 1.388125
  H 4.369946 1.132274 1.586007
  H 2.797601 -0.331559 2.878693
  H 1.502584 0.843446 2.631827
  H 4.127054 1.380997 4.094094
  H 2.560090 1.129961 4.846991
  H 2.834731 2.553970 3.856820
  H 2.834564 0.646506 -1.906594
  H 5.408964 0.170548 -0.291354
  H 3.750495 -2.689951 -2.774410
  H 4.716883 -1.673539 -3.802514
  H 2.923894 0.042453 -3.905194
  H 1.887678 -0.977587 -2.867113
  H 6.356971 -1.690097 -0.868019
 29
 52.886378
  C 2.057146 -0.538913 -0.045754
  C 2.878388 0.678827 0.154258
  C 3.252906 1.287024 1.425944
  C 2.669539 0.654148 2.689814
  C 3.067520 1.453814 3.917898
  C 3.490598 0.839090 -1.102006
  C 4.694502 0.123224 -1.115266
  C 4.636725 -1.120055 -1.717526
  C 3.869324 -1.666397 -2.892238
  C 2.734445 -0.917390 -3.578290
  H 2.420369 -1.512581 -4.431023
  O 5.553411 -2.043633 -1.357292
  H 1.791299 -1.009558 0.884612
  H 2.759878 -1.193491 -0.654682
  H 1.144807 -0.360790 -0.615962
  H 2.932400 2.341552 1.377918
  H 4.350142 1.349939 1.506375
  H 3.036262 -0.367023 2.801795
  H 1.582078 0.621967 2.623871
  H 4.145579 1.490875 4.024028
  H 2.656931 1.000727 4.815261
  H 2.694630 2.469794 3.857148
  H 2.850041 0.760445 -1.972261
  H 5.408424 0.245445 -0.311801
  H 3.530891 -2.666814 -2.603042
  H 4.650081 -1.837369 -3.648345
  H 3.058639 0.045293 -3.964224
  H 1.862166 -0.795769 -2.940619
  H 6.175235 -1.738536 -0.677286
 29
 63.007626
  C 2.139337 -0.575360 -0.086067
  C 2.871766 0.688978 0.114172
  C 3.220221 1.311860 1.384156
  C 2.751530 0.607536 2.654425
  C 3.107493 1.431512 3.880730
  C 3.471799 0.898691 -1.143494
  C 4.670226 0.167924 -1.125875
  C 4.533953 -1.121024 -1.623347
  C 3.804075 -1.684502 -2.821157
  C 2.778482 -0.880519 -3.606938
  H 2.482485 -1.477219 -4.465405
  O 5.394517 -2.064168 -1.178051
  H 1.880249 -1.054434 0.843291
  H 2.925533 -1.184731 -0.685403
  H 1.237523 -0.478405 -0.687965
  H 2.781995 2.324725 1.361724
  H 4.304408 1.498231 1.429056
  H 3.227650 -0.372282 2.736877
  H 1.675304 0.462560 2.626302
  H 4.180797 1.582642 3.948989
  H 2.781002 0.926423 4.786089
  H 2.625854 2.403438 3.849107
  H 2.834749 0.811889 -2.018128
  H 5.373775 0.299750 -0.316901
  H 3.371182 -2.643114 -2.512983
  H 4.615936 -1.948310 -3.515514
  H 3.197060 0.045929 -3.989723
  H 1.875200 -0.679483 -3.037263
  H 6.027107 -1.742858 -0.515175
 29
 73.529220
  C 2.196445 -0.612480 -0.094595
  C 2.852070 0.687563 0.091269
  C 3.192009 1.326010 1.356097
  C 2.808014 0.589950 2.636164
  C 3.156601 1.432116 3.858030
  C 3.443467 0.929639 -1.171342
  C 4.643886 0.198250 -1.150588
  C 4.442263 -1.127229 -1.561836
  C 3.772305 -1.701087 -2.796073
  C 2.836194 -0.867268 -3.648898
  H 2.578480 -1.453369 -4.525751
  O 5.276846 -2.072940 -1.058809
  H 1.953628 -1.100128 0.838358
  H 3.056610 -1.182678 -0.713368
  H 1.309122 -0.593362 -0.725992
  H 2.675460 2.305910 1.350743
  H 4.260932 1.594875 1.369093
  H 3.343903 -0.361715 2.697273
  H 1.740429 0.381782 2.643090
  H 4.220506 1.647824 3.891148
  H 2.893405 0.907046 4.767535
  H 2.617565 2.372418 3.848671
  H 2.803259 0.836593 -2.045370
  H 5.335641 0.337613 -0.332428
  H 3.278089 -2.632854 -2.501920
  H 4.617938 -2.008717 -3.430867
  H 3.312937 0.045543 -3.997689
  H 1.904050 -0.635765 -3.141781
  H 5.906653 -1.739369 -0.399006
 29
 83.640172
  C 2.240144 -0.641865 -0.077293
  C 2.842114 0.672888 0.086252
  C 3.177002 1.336508 1.342648
  C 2.838702 0.599805 2.633298
  C 3.189611 1.458434 3.843910
  C 3.426229 0.927515 -1.184277
  C 4.627127 0.203595 -1.185816
  C 4.378017 -1.150068 -1.533661
  C 3.770290 -1.721228 -2.808886
  C 2.884957 -0.865300 -3.687335
  H 2.667709 -1.429281 -4.592832
  O 5.211989 -2.086007 -1.007105
  H 2.013474 -1.135375 0.855584
  H 3.174791 -1.199240 -0.747466
  H 1.379810 -0.692369 -0.739627
  H 2.624986 2.294596 1.337889
  H 4.234483 1.644521 1.335371
  H 3.398221 -0.334255 2.689303
  H 1.778053 0.364420 2.662527
  H 4.245408 1.702178 3.854212
  H 2.957666 0.928293 4.766466
  H 2.625794 2.384087 3.840480
  H 2.775387 0.831576 -2.047610
  H 5.313619 0.346525 -0.363704
  H 3.252825 -2.644629 -2.546376
  H 4.643084 -2.028142 -3.402865
  H 3.385012 0.055082 -3.986994
  H 1.927155 -0.640602 -3.218743
  H 5.847810 -1.736698 -0.360933
 29
 91.897212
  C 2.245512 -0.659054 -0.022497
  C 2.825467 0.637972 0.099915
  C 3.167775 1.334461 1.337752
  C 2.837088 0.630018 2.649621
  C 3.207533 1.512447 3.833510
  C 3.419900 0.893157 -1.181213
  C 4.621712 0.185356 -1.219572
  C 4.363985 -1.193795 -1.539486
  C 3.802635 -1.743902 -2.853929
  C 2.925642 -0.856163 -3.716221
  H 2.731264 -1.379409 -4.649894
  O 5.233946 -2.113344 -1.033055
  H 2.020682 -1.151411 0.912387
  H 3.300153 -1.256932 -0.797349
  H 1.435230 -0.783019 -0.733482
  H 2.617447 2.298928 1.312718
  H 4.220996 1.633759 1.311753
  H 3.392574 -0.311345 2.720339
  H 1.773192 0.403605 2.695969
  H 4.269426 1.748347 3.826999
  H 2.982529 1.007645 4.764822
  H 2.649655 2.443920 3.814872
  H 2.754812 0.813625 -2.037243
  H 5.312860 0.330707 -0.399745
  H 3.289441 -2.679170 -2.631111
  H 4.689359 -2.016552 -3.431892
  H 3.422731 0.078926 -3.962764
  H 1.957936 -0.661582 -3.256396
  H 5.874060 -1.746029 -0.403063
 29
 92.808831
  C 2.164554 -0.602988 0.038768
  C 2.766882 0.611245 0.134054
  C 3.165232 1.334525 1.353005
  C 2.810783 0.677626 2.678326
  C 3.228913 1.568429 3.842060
  C 3.399243 0.834610 -1.164371
  C 4.618476 0.152426 -1.269241
  C 4.415985 -1.251657 -1.575227
  C 3.876977 -1.778092 -2.926727
  C 2.975922 -0.877947 -3.731152
  H 2.783279 -1.359886 -4.693187
  O 5.352794 -2.142784 -1.127242
  H 1.914181 -1.069451 0.977616
  H 3.440823 -1.356961 -0.874143
  H 1.416095 -0.795041 -0.719252
  H 2.660397 2.315104 1.308346
  H 4.224663 1.586996 1.315984
  H 3.316588 -0.286110 2.763053
  H 1.737110 0.499792 2.734133
  H 4.295670 1.754616 3.825150
  H 2.985203 1.093471 4.788675
  H 2.715159 2.522213 3.803810
  H 2.723931 0.805446 -2.016196
  H 5.343331 0.333473 -0.487220
  H 3.399954 -2.738716 -2.744769
  H 4.774037 -1.998921 -3.517211
  H 3.448900 0.081148 -3.934044
  H 2.005311 -0.733352 -3.250384
  H 5.987786 -1.752982 -0.506033
