 29
 0.000000
  H 1.383975 0.137746 0.394054
  C 2.453972 0.138831 0.396445
  C 3.235887 0.609601 1.567949
  C 2.454651 1.098519 2.785050
  C 3.400218 1.544794 3.895611
  C 3.074760 -0.323868 -0.755623
  C 4.452396 -0.411652 -0.974602
  C 5.123831 -0.863395 -2.100714
  C 4.621920 -1.386396 -3.404454
  C 3.129954 -1.502980 -3.695876
  C 2.901042 -2.064737 -5.096300
  O 6.448567 -0.861790 -2.097024
  H 3.892013 1.422462 1.236076
  H 3.892206 -0.206765 1.890660
  H 1.816409 0.300727 3.170305
  H 1.816264 1.941012 2.511316
  H 4.036296 0.723883 4.220901
  H 2.831617 1.890430 4.756103
  H 4.036115 2.362679 3.562473
  H 2.419633 -0.642347 -1.548686
  H 5.073532 -0.080521 -0.149771
  H 5.075895 -2.376004 -3.531813
  H 5.076265 -0.759449 -4.180462
  H 2.655656 -0.522022 -3.641480
  H 2.655252 -2.174151 -2.978669
  H 3.338077 -1.417822 -5.854009
  H 1.834884 -2.144599 -5.296051
  H 3.337677 -3.056130 -5.196764
  H 6.820588 -0.526463 -1.260938
 29
 0.000000
  H 1.417429 0.137190 0.392675
  C 2.487387 0.140853 0.401475
  C 3.261135 0.613494 1.577640
  C 2.471446 1.100517 2.790038
  C 3.409267 1.549058 3.906241
  C 3.131206 -0.331363 -0.774304
  C 4.441702 -0.424700 -1.007143
  C 5.078613 -0.859103 -2.090038
  C 4.602327 -1.385421 -3.402034
  C 3.116311 -1.512096 -3.718584
  C 2.914873 -2.075314 -5.122643
  O 6.342102 -0.837717 -2.037046
  H 3.917277 1.427937 1.249700
  H 3.917474 -0.201291 1.904280
  H 1.832832 0.301185 3.171467
  H 1.832682 1.941472 2.512481
  H 4.045361 0.729678 4.235339
  H 2.834690 1.893314 4.763311
  H 4.045176 2.368476 3.576915
  H 2.481610 -0.651413 -1.571275
  H 5.074018 -0.096511 -0.189662
  H 5.065082 -2.371923 -3.521659
  H 5.065444 -0.755366 -4.170303
  H 2.634525 -0.534377 -3.672255
  H 2.634132 -2.186508 -3.009450
  H 3.360239 -1.425410 -5.872908
  H 1.852801 -2.162388 -5.340351
  H 3.359850 -3.063720 -5.215668
  H 6.662562 -0.478959 -1.142532
 29
 0.000000
  H 1.450947 0.136952 0.392078
  C 2.520814 0.143381 0.407757
  C 3.285758 0.618007 1.588872
  C 2.487034 1.102972 2.796165
  C 3.416495 1.553923 3.918374
  C 3.190072 -0.339183 -0.793804
  C 4.435466 -0.437787 -1.039781
  C 5.037939 -0.856028 -2.082391
  C 4.584960 -1.385195 -3.401479
  C 3.104748 -1.520960 -3.740660
  C 2.928211 -2.085338 -5.147605
  O 6.239258 -0.817576 -1.986862
  H 3.941888 1.434147 1.265153
  H 3.942089 -0.195083 1.919729
  H 1.848048 0.301988 3.173483
  H 1.847895 1.942277 2.514503
  H 4.052577 0.736187 4.251559
  H 2.835531 1.896683 4.771730
  H 4.052389 2.374986 3.593139
  H 2.546444 -0.660904 -1.594933
  H 5.080012 -0.112910 -0.230567
  H 5.055525 -2.368838 -3.513983
  H 5.055876 -0.752279 -4.162623
  H 2.616328 -0.546214 -3.701733
  H 2.615946 -2.198347 -3.038932
  H 3.380983 -1.432683 -5.891019
  H 1.870135 -2.178909 -5.381490
  H 3.380606 -3.070995 -5.233784
  H 6.501537 -0.434752 -1.032340
 29
 0.000000
  H 1.484391 0.137141 0.392535
  C 2.554101 0.146569 0.415680
  C 3.309452 0.623322 1.602102
  C 2.500964 1.106029 2.803790
  C 3.421305 1.559569 3.932456
  C 3.251780 -0.347344 -0.814159
  C 4.434507 -0.450853 -1.072365
  C 5.002774 -0.854346 -2.078214
  C 4.570117 -1.385870 -3.403166
  C 3.095266 -1.529493 -3.761909
  C 2.940374 -2.094754 -5.171049
  O 6.141306 -0.801655 -1.947193
  H 3.965534 1.441303 1.282965
  H 3.965735 -0.187929 1.937536
  H 1.861609 0.303252 3.176645
  H 1.861456 1.943542 2.517670
  H 4.057337 0.743615 4.270077
  H 2.833441 1.900687 4.781736
  H 4.057148 2.382417 3.611662
  H 2.614661 -0.670860 -1.619759
  H 5.092342 -0.129687 -0.272413
  H 5.047354 -2.366993 -3.509396
  H 5.047697 -0.750433 -4.158032
  H 2.601196 -0.557358 -3.729486
  H 2.600825 -2.209493 -3.066688
  H 3.399471 -1.439675 -5.908428
  H 1.885998 -2.193942 -5.418917
  H 3.399105 -3.077989 -5.251196
  H 6.338047 -0.394407 -0.931769
 29
 0.000000
  H 1.517143 0.138060 0.394801
  C 2.586615 0.150736 0.426032
  C 3.331524 0.629760 1.618128
  C 2.512513 1.109992 2.813668
  C 3.422914 1.566306 3.949257
  C 3.316338 -0.355810 -0.835278
  C 4.439745 -0.463794 -1.104634
  C 4.974521 -0.854420 -2.078410
  C 4.558279 -1.387763 -3.407884
  C 3.087959 -1.537687 -3.782312
  C 2.950505 -2.103576 -5.193008
  O 6.050413 -0.790508 -1.919417
  H 3.987515 1.449735 1.303955
  H 3.987713 -0.179500 1.958519
  H 1.872797 0.305270 3.181684
  H 1.872645 1.945564 2.522716
  H 4.058851 0.752281 4.291682
  H 2.827614 1.905624 4.794067
  H 4.058664 2.391085 3.633274
  H 2.686313 -0.681247 -1.645669
  H 5.111851 -0.146747 -0.314963
  H 5.040814 -2.366833 -3.509000
  H 5.041149 -0.750273 -4.157636
  H 2.589417 -0.567676 -3.755176
  H 2.589056 -2.219811 -3.092380
  H 3.414624 -1.446523 -5.925472
  H 1.899263 -2.207269 -5.452091
  H 3.414267 -3.084837 -5.268242
  H 6.174258 -0.358794 -0.842984
 29
 0.000000
  H 1.548672 0.140487 0.400813
  C 2.617801 0.156724 0.440915
  C 3.351197 0.638204 1.639147
  C 2.520701 1.115682 2.827849
  C 3.420127 1.575003 3.970949
  C 3.385288 -0.364799 -0.857706
  C 4.452646 -0.476882 -1.137269
  C 4.954677 -0.857087 -2.085064
  C 4.549941 -1.391660 -3.417592
  C 3.082904 -1.545978 -3.802954
  C 2.957649 -2.112263 -5.214628
  O 5.967706 -0.785038 -1.905780
  H 4.007038 1.460364 1.330420
  H 4.007232 -0.168874 1.984976
  H 1.880637 0.308828 3.190552
  H 1.880489 1.949125 2.531592
  H 4.055908 0.763094 4.318644
  H 2.816711 1.912321 4.810789
  H 4.055726 2.401901 3.660243
  H 2.763093 -0.692319 -1.673293
  H 5.140250 -0.164473 -0.359171
  H 5.036142 -2.369282 -3.515101
  H 5.036471 -0.752722 -4.163738
  H 2.581275 -0.577462 -3.779543
  H 2.580920 -2.229597 -3.116747
  H 3.425240 -1.453818 -5.943625
  H 1.908679 -2.219097 -5.481528
  H 3.424890 -3.092132 -5.286394
  H 6.010027 -0.328259 -0.766846
 29
 0.000000
  H 1.578024 0.144952 0.411888
  C 2.646681 0.165069 0.461665
  C 3.367450 0.649183 1.666482
  C 2.524499 1.123616 2.847615
  C 3.411869 1.586175 3.998806
  C 3.458926 -0.374330 -0.881489
  C 4.473772 -0.489909 -1.169751
  C 4.944672 -0.862877 -2.099493
  C 4.545506 -1.398035 -3.433467
  C 3.080089 -1.554473 -3.824105
  C 2.960733 -2.120939 -5.236218
  O 5.895737 -0.785916 -1.907957
  H 4.023069 1.473726 1.363696
  H 4.023255 -0.155515 2.018244
  H 1.884112 0.314435 3.204518
  H 1.883972 1.954735 2.545567
  H 4.047422 0.776572 4.352250
  H 2.799654 1.921281 4.833148
  H 4.047248 2.415382 3.693858
  H 2.845332 -0.704092 -1.702671
  H 5.177768 -0.182602 -0.404375
  H 5.033468 -2.374953 -3.529221
  H 5.033793 -0.758394 -4.177861
  H 2.576979 -0.586684 -3.802504
  H 2.576628 -2.238817 -3.139704
  H 3.429992 -1.461819 -5.963531
  H 1.912885 -2.229289 -5.506890
  H 3.429646 -3.100132 -5.306297
  H 5.848616 -0.304002 -0.706348
 29
 0.000000
  H 1.603549 0.152663 0.431037
  C 2.671584 0.176958 0.491235
  C 3.378669 0.663857 1.703021
  C 2.522387 1.134959 2.875871
  C 3.396671 1.600956 4.035659
  C 3.538092 -0.384578 -0.907056
  C 4.504185 -0.502922 -1.202190
  C 4.946448 -0.873007 -2.124735
  C 4.545534 -1.407989 -3.458258
  C 3.079605 -1.563765 -3.847241
  C 2.958398 -2.130182 -5.259218
  O 5.837831 -0.794467 -1.929244
  H 4.033981 1.490966 1.406634
  H 4.034155 -0.138279 2.061173
  H 1.881718 0.323271 3.226521
  H 1.881590 1.963575 2.567580
  H 4.031909 0.793836 4.395294
  H 2.775041 1.933644 4.863986
  H 4.031748 2.432650 3.736912
  H 2.933830 -0.716719 -1.734179
  H 5.225258 -0.201155 -0.450626
  H 5.032946 -2.385129 -3.554559
  H 5.033272 -0.768572 -4.203205
  H 2.576957 -0.595748 -3.825076
  H 2.576606 -2.247879 -3.162270
  H 3.427135 -1.471278 -5.987064
  H 1.910195 -2.238059 -5.528708
  H 3.426789 -3.109588 -5.329824
  H 5.694505 -0.286995 -0.663911
 29
 0.000000
  H 1.623058 0.164965 0.461609
  C 2.690317 0.193626 0.532703
  C 3.383001 0.683379 1.751637
  C 2.512875 1.150944 2.915682
  C 3.373365 1.620480 4.084325
  C 3.622976 -0.395701 -0.934800
  C 4.544408 -0.515880 -1.234483
  C 4.961679 -0.888809 -2.164101
  C 4.550442 -1.422710 -3.494916
  C 3.081534 -1.574555 -3.874108
  C 2.949391 -2.140640 -5.285242
  O 5.798288 -0.811959 -1.972798
  H 4.037917 1.513169 1.461941
  H 4.038073 -0.116080 2.116470
  H 1.871985 0.336632 3.259786
  H 1.871874 1.976940 2.600855
  H 4.008196 0.815954 4.450436
  H 2.741958 1.950600 4.906262
  H 4.008052 2.454773 3.792064
  H 3.028549 -0.730291 -1.768042
  H 5.282721 -0.219953 -0.497471
  H 5.034582 -2.401152 -3.594457
  H 5.034912 -0.784599 -4.243110
  H 2.581640 -0.605194 -3.848601
  H 2.581284 -2.257322 -3.185786
  H 3.415026 -1.482990 -6.016209
  H 1.899125 -2.245706 -5.547731
  H 3.414675 -3.121297 -5.358960
  H 5.555335 -0.278095 -0.641673
 29
 0.000000
  H 1.635414 0.182535 0.505295
  C 2.701731 0.215712 0.587663
  C 3.379417 0.708356 1.813842
  C 2.495066 1.172200 2.968620
  C 3.341163 1.645340 4.146285
  C 3.714327 -0.407805 -0.964980
  C 4.594140 -0.528703 -1.266425
  C 4.990128 -0.910874 -2.219064
  C 4.559879 -1.442699 -3.544696
  C 3.085669 -1.587261 -3.905750
  C 2.933340 -2.152649 -5.315134
  O 5.778450 -0.838473 -2.038826
  H 4.033839 1.540920 1.531071
  H 4.033975 -0.088333 2.185590
  H 1.854027 0.355173 3.305945
  H 1.853937 1.995485 2.647024
  H 3.975490 0.843498 4.519097
  H 2.699714 1.972761 4.961499
  H 3.975366 2.482320 3.860735
  H 3.130161 -0.744886 -1.804451
  H 5.349414 -0.238777 -0.544362
  H 5.037907 -2.423524 -3.650165
  H 5.038244 -0.806975 -4.298828
  H 2.590930 -0.615437 -3.874114
  H 2.590565 -2.267561 -3.211289
  H 3.393182 -1.497294 -6.051809
  H 1.879407 -2.252508 -5.564655
  H 3.392822 -3.135596 -5.394550
  H 5.435085 -0.277007 -0.638899
 29
 0.000000
  H 1.639554 0.205411 0.562188
  C 2.704790 0.243102 0.655836
  C 3.367369 0.738577 1.889110
  C 2.468889 1.198638 3.034458
  C 3.300465 1.675324 4.221004
  C 3.810568 -0.420608 -0.996886
  C 4.651551 -0.541022 -1.297096
  C 5.029786 -0.938893 -2.288852
  C 4.572682 -1.467607 -3.606727
  C 3.091392 -1.601786 -3.941926
  C 2.910460 -2.166011 -5.348401
  O 5.778456 -0.873002 -2.124816
  H 4.021215 1.573914 1.613267
  H 4.021326 -0.055343 2.267777
  H 1.827783 0.378892 3.364993
  H 1.827717 2.019209 2.706082
  H 3.934202 0.876165 4.600521
  H 2.649043 2.000001 5.029379
  H 3.934103 2.514992 3.942168
  H 3.236751 -0.760138 -1.842487
  H 5.422832 -0.257007 -0.589754
  H 5.041890 -2.451762 -3.720482
  H 5.042238 -0.835217 -4.369157
  H 2.604121 -0.626511 -3.901701
  H 2.603743 -2.278630 -3.238864
  H 3.361939 -1.513862 -6.093053
  H 1.851640 -2.258448 -5.579439
  H 3.361566 -3.152159 -5.435782
  H 5.338967 -0.282727 -0.653090
 29
 0.000000
  H 1.634950 0.217722 0.592819
  C 2.699690 0.257307 0.691200
  C 3.355899 0.753953 1.927407
  C 2.451521 1.212407 3.068749
  C 3.276965 1.690564 4.258979
  C 3.847699 -0.424452 -1.006461
  C 4.674100 -0.544239 -1.305093
  C 5.046670 -0.950400 -2.317507
  C 4.577056 -1.477593 -3.631592
  C 3.092635 -1.606897 -3.954653
  C 2.898341 -2.170508 -5.359595
  O 5.782638 -0.887525 -2.160979
  H 4.009477 1.590453 1.654471
  H 4.009578 -0.038805 2.308978
  H 1.810411 0.391520 3.396433
  H 1.810356 2.031838 2.737526
  H 3.910430 0.892531 4.641310
  H 2.621380 2.014077 5.064451
  H 3.910342 2.531359 3.982961
  H 3.278251 -0.764998 -1.854603
  H 5.451153 -0.262417 -0.603212
  H 5.042080 -2.463284 -3.749170
  H 5.042433 -0.846741 -4.397850
  H 2.608918 -0.630025 -3.910454
  H 2.608534 -2.282142 -3.247612
  H 3.345853 -1.519838 -6.107928
  H 1.837365 -2.259460 -5.581958
  H 3.345473 -3.158133 -5.450653
  H 5.306801 -0.284926 -0.658541
 29
 0.000000
  H 1.624702 0.273874 0.732501
  C 2.686827 0.322215 0.852771
  C 3.313343 0.824126 2.102180
  C 2.381927 1.275008 3.224632
  C 3.178735 1.759830 4.431558
  C 4.055431 -0.451847 -1.074694
  C 4.808118 -0.566879 -1.361417
  C 5.148988 -1.021912 -2.495619
  C 4.607556 -1.539461 -3.785674
  C 3.107291 -1.640291 -4.037837
  C 2.835808 -2.199459 -5.431700
  O 5.832413 -0.975548 -2.380194
  H 3.965488 1.666005 1.842690
  H 3.965534 0.036740 2.497181
  H 1.740991 0.448839 3.539113
  H 1.740991 2.089164 2.880223
  H 3.810744 0.967003 4.826903
  H 2.504073 2.077855 5.223341
  H 3.810712 2.605837 4.168571
  H 3.506382 -0.796991 -1.934347
  H 5.613075 -0.296164 -0.687171
  H 5.047591 -2.533784 -3.924742
  H 5.047970 -0.917251 -4.573446
  H 2.644935 -0.654395 -3.971173
  H 2.644519 -2.306502 -3.308305
  H 3.259609 -1.557102 -6.200728
  H 1.763978 -2.268065 -5.603400
  H 3.259196 -3.195388 -5.543427
  H 5.188465 -0.315010 -0.733395
