 17
 0.000000
  H 1.437019 0.108604 0.323998
  C 2.517085 0.110176 0.327190
  C 3.186193 0.597673 1.535866
  H 2.471682 0.901767 2.291019
  C 3.147690 -0.346955 -0.808552
  C 4.537827 -0.407932 -0.960823
  C 5.212280 -0.863352 -2.098525
  C 4.568594 -1.355580 -3.329691
  H 3.489999 -1.338498 -3.289163
  O 6.512676 -0.879233 -2.138294
  H 3.838750 1.441798 1.301928
  H 3.839612 -0.172041 1.952490
  H 2.520995 -0.674506 -1.623139
  H 5.147396 -0.075151 -0.130233
  H 4.915689 -2.370244 -3.530709
  H 4.916962 -0.760078 -4.174956
  H 6.962679 -0.558130 -1.336169
 17
 13.078449
  H 1.391356 0.139122 0.400008
  C 2.469127 0.138705 0.398109
  C 3.157845 0.616901 1.583599
  H 2.458075 0.926403 2.352444
  C 3.143340 -0.362211 -0.846519
  C 4.520393 -0.421756 -0.995323
  C 5.185049 -0.874202 -2.125528
  C 4.571356 -1.367012 -3.358249
  H 3.490753 -1.355807 -3.332554
  O 6.621749 -0.886437 -2.156010
  H 3.814056 1.455563 1.337065
  H 3.815129 -0.157537 1.987245
  H 2.505410 -0.685556 -1.650575
  H 5.130231 -0.088881 -0.164419
  H 4.927850 -2.379749 -3.554206
  H 4.929200 -0.769421 -4.198466
  H 7.045534 -0.562087 -1.346152
 17
 40.088609
  H 1.344414 0.154554 0.442124
  C 2.422079 0.163792 0.463039
  C 3.174944 0.622383 1.593574
  H 2.525155 0.948163 2.400224
  C 3.105033 -0.374695 -0.871454
  C 4.485204 -0.426785 -1.002939
  C 5.094960 -0.881406 -2.142389
  C 4.591172 -1.378180 -3.389846
  H 3.508519 -1.386654 -3.412414
  O 6.701018 -0.877728 -2.134131
  H 3.845315 1.447833 1.309117
  H 3.847131 -0.166928 1.962784
  H 2.416902 -0.682090 -1.634241
  H 5.100800 -0.096041 -0.175968
  H 4.983640 -2.385053 -3.570265
  H 4.984529 -0.771405 -4.213059
  H 6.996001 -0.534269 -1.271125
 17
 73.118371
  H 1.315270 0.173095 0.488622
  C 2.386415 0.181829 0.508087
  C 3.179406 0.627773 1.605842
  H 2.559400 0.962947 2.435121
  C 3.066995 -0.382972 -0.890357
  C 4.440995 -0.435431 -1.023383
  C 5.027971 -0.885771 -2.153737
  C 4.589171 -1.384748 -3.407468
  H 3.505361 -1.409044 -3.468380
  O 6.832115 -0.869048 -2.113214
  H 3.846514 1.433701 1.303167
  H 3.848695 -0.160229 1.948956
  H 2.351799 -0.681596 -1.631270
  H 5.059333 -0.106250 -0.201167
  H 5.001472 -2.378415 -3.573355
  H 5.001549 -0.777144 -4.210753
  H 7.071197 -0.524117 -1.243158
 17
 97.396616
  H 1.317196 0.116761 0.510381
  C 2.400018 0.144690 0.471281
  C 3.181776 0.636825 1.586873
  H 2.558430 0.950106 2.424294
  C 2.963443 -0.353136 -0.788240
  C 4.354642 -0.415990 -1.023676
  C 4.829824 -0.870552 -2.173801
  C 4.557548 -1.371889 -3.433744
  H 3.476667 -1.429930 -3.591142
  O 7.080117 -0.890898 -2.068761
  H 3.820104 1.466861 1.272704
  H 3.905305 -0.114727 1.917355
  H 2.250387 -0.679329 -1.522554
  H 5.030010 -0.089823 -0.243715
  H 5.016733 -2.353439 -3.568329
  H 5.021937 -0.754258 -4.204757
  H 7.274000 -0.598151 -1.171462
 17
 106.708898
  H 1.318142 0.127147 0.674689
  C 2.387442 0.137352 0.504682
  C 3.242355 0.661367 1.572947
  H 2.662339 0.948614 2.446587
  C 2.811514 -0.349241 -0.713455
  C 4.206406 -0.430590 -1.080015
  C 4.600421 -0.874450 -2.227891
  C 4.609131 -1.376604 -3.514086
  H 3.558510 -1.492885 -3.830463
  O 7.187412 -0.883224 -1.953642
  H 3.817563 1.517546 1.225444
  H 3.984327 -0.086598 1.878771
  H 2.091043 -0.703536 -1.421819
  H 4.924859 -0.102381 -0.323092
  H 5.105210 -2.343253 -3.579288
  H 5.104195 -0.707194 -4.213863
  H 7.389730 -0.643144 -1.042650
 17
 107.250010
  H 1.313172 0.156998 0.829899
  C 2.354597 0.146096 0.555813
  C 3.307454 0.646958 1.560946
  H 2.803489 0.937296 2.473926
  C 2.663284 -0.329681 -0.677695
  C 4.026989 -0.428118 -1.156821
  C 4.421432 -0.866783 -2.297238
  C 4.661708 -1.390451 -3.555872
  H 3.679537 -1.572127 -4.010000
  O 7.267653 -0.864972 -1.832478
  H 3.858103 1.510852 1.175424
  H 4.047163 -0.116547 1.807343
  H 1.896652 -0.672159 -1.351449
  H 4.780388 -0.090597 -0.439275
  H 5.194935 -2.346561 -3.522860
  H 5.185583 -0.686833 -4.213112
  H 7.551906 -0.629751 -0.944211
 17
 106.466231
  H 1.381307 -0.164290 1.130195
  C 2.361252 -0.037782 0.689346
  C 3.365205 0.710001 1.475407
  H 2.967141 1.010014 2.439308
  C 2.559175 -0.580281 -0.529767
  C 3.828912 -0.520656 -1.215589
  C 4.205342 -0.978302 -2.348619
  C 4.705939 -1.516873 -3.506852
  H 3.858829 -2.019546 -4.017635
  O 7.296017 -0.243456 -1.927075
  H 3.683399 1.610007 0.941958
  H 4.257777 0.106715 1.644707
  H 1.764374 -1.106377 -1.041868
  H 4.618082 0.022460 -0.673929
  H 5.472133 -2.280336 -3.319697
  H 5.075130 -0.751837 -4.207733
  H 7.694881 0.141858 -1.141401
 17
 106.452746
  H 1.338231 -0.080379 1.110789
  C 2.317027 -0.015761 0.681034
  C 3.341332 0.722757 1.440642
  H 2.954724 1.082653 2.381360
  C 2.512991 -0.611161 -0.506069
  C 3.780062 -0.611998 -1.184295
  C 4.205595 -1.087236 -2.289640
  C 4.672401 -1.466186 -3.513543
  H 3.827091 -1.914732 -4.071229
  O 7.557875 -0.313504 -1.824616
  H 3.700031 1.579155 0.867513
  H 4.209576 0.089470 1.641744
  H 1.705180 -1.127718 -1.007490
  H 4.594545 -0.063923 -0.675784
  H 5.445332 -2.230366 -3.445642
  H 5.003164 -0.613265 -4.113115
  H 8.107311 0.026449 -1.115091
 17
 106.814964
  H 1.306442 -0.153128 1.138279
  C 2.293497 -0.060307 0.705780
  C 3.327516 0.614860 1.509998
  H 2.937807 0.907447 2.481826
  C 2.474756 -0.590241 -0.547880
  C 3.736288 -0.563426 -1.230492
  C 4.172183 -0.996044 -2.349385
  C 4.667526 -1.403332 -3.558084
  H 3.828862 -1.854795 -4.097311
  O 7.750609 -0.206468 -1.824065
  H 3.678597 1.516824 1.003581
  H 4.195212 -0.031170 1.662965
  H 1.664453 -1.076340 -1.072658
  H 4.552348 -0.077714 -0.672228
  H 5.433430 -2.178591 -3.463865
  H 5.003892 -0.571157 -4.182168
  H 8.403895 0.112052 -1.199073
 17
 106.017681
  H 1.318527 -0.142439 1.121013
  C 2.307665 -0.065754 0.692068
  C 3.344670 0.606026 1.494735
  H 2.966080 0.900134 2.468035
  C 2.493595 -0.591090 -0.540650
  C 3.758003 -0.556707 -1.222802
  C 4.161082 -0.971954 -2.353046
  C 4.674533 -1.389723 -3.548514
  H 3.861684 -1.898465 -4.094355
  O 7.604681 -0.218531 -1.789343
  H 3.704993 1.500903 0.983378
  H 4.209460 -0.043742 1.639214
  H 1.679858 -1.064613 -1.066879
  H 4.577513 -0.073364 -0.671323
  H 5.470215 -2.131409 -3.423146
  H 4.996819 -0.558029 -4.182770
  H 8.297937 0.087227 -1.200394
