 32
 0.000000
  C 0.972154 0.141763 0.400385
  C 2.450911 0.139075 0.393808
  C 3.234667 0.609825 1.563557
  C 2.457594 1.095616 2.784530
  C 3.407556 1.541393 3.891683
  C 3.062286 -0.325762 -0.761959
  C 4.441530 -0.412074 -0.977236
  C 5.119203 -0.862864 -2.099749
  C 4.625044 -1.386641 -3.404122
  C 3.134040 -1.504721 -3.699004
  C 2.908912 -2.067188 -5.099737
  O 6.444550 -0.857445 -2.086521
  H 0.543115 0.519187 1.321745
  H 0.587366 -0.867501 0.244010
  H 0.599810 0.757050 -0.420066
  H 3.887793 1.424893 1.231074
  H 3.893229 -0.205858 1.883445
  H 1.822234 0.296317 3.171288
  H 1.817025 1.937752 2.515083
  H 4.046130 0.720912 4.212853
  H 2.842305 1.884822 4.755145
  H 4.040843 2.360639 3.557116
  H 2.402432 -0.643380 -1.551381
  H 5.058757 -0.079624 -0.150420
  H 5.080839 -2.375633 -3.529350
  H 5.081226 -0.759220 -4.178605
  H 2.658741 -0.524226 -3.645822
  H 2.658337 -2.175885 -2.982511
  H 3.347052 -1.420197 -5.856620
  H 1.843389 -2.148098 -5.301885
  H 3.346665 -3.058151 -5.198839
  H 6.814983 -0.521529 -1.248774
 32
 3.840175
  C 0.992403 0.185673 0.405024
  C 2.423797 0.141485 0.387723
  C 3.220771 0.608854 1.554608
  C 2.453502 1.085231 2.785808
  C 3.419461 1.529489 3.879884
  C 3.037017 -0.328098 -0.769296
  C 4.409412 -0.412040 -0.969943
  C 5.098825 -0.862450 -2.086978
  C 4.612065 -1.386624 -3.392887
  C 3.124642 -1.507065 -3.698927
  C 2.925131 -2.071077 -5.103333
  O 6.420191 -0.855203 -2.063526
  H 0.546655 0.542322 1.327235
  H 0.789932 -0.838255 0.245632
  H 0.581147 0.758069 -0.429881
  H 3.866153 1.428658 1.218787
  H 3.891681 -0.199886 1.865167
  H 1.828666 0.280523 3.177487
  H 1.807148 1.926280 2.528943
  H 4.065765 0.709922 4.186142
  H 2.869170 1.867274 4.754575
  H 4.044097 2.351888 3.538354
  H 2.379817 -0.645494 -1.559090
  H 5.030090 -0.080446 -0.146635
  H 5.074928 -2.372781 -3.514129
  H 5.077897 -0.760276 -4.162387
  H 2.647061 -0.527935 -3.652332
  H 2.644272 -2.180440 -2.988492
  H 3.373758 -1.422269 -5.851923
  H 1.864708 -2.158729 -5.325938
  H 3.371080 -3.058761 -5.194357
  H 6.802953 -0.521873 -1.230989
 32
 8.937476
  C 0.931603 0.222547 0.367314
  C 2.399578 0.152759 0.369702
  C 3.222223 0.608845 1.535138
  C 2.472115 1.071222 2.783474
  C 3.456640 1.514862 3.860202
  C 3.015975 -0.324318 -0.777695
  C 4.407398 -0.415917 -0.964510
  C 5.091318 -0.861928 -2.056207
  C 4.610030 -1.383356 -3.364029
  C 3.122490 -1.495583 -3.675789
  C 2.931560 -2.057880 -5.082207
  O 6.402274 -0.860262 -2.021824
  H 0.455432 0.556985 1.285471
  H 0.954294 -0.835565 0.240301
  H 0.483067 0.692078 -0.516939
  H 3.848197 1.438820 1.186677
  H 3.914480 -0.187258 1.831292
  H 1.863681 0.256210 3.181057
  H 1.815907 1.910775 2.545329
  H 4.116455 0.697257 4.146658
  H 2.922896 1.842759 4.750473
  H 4.068274 2.345296 3.510538
  H 2.364960 -0.639185 -1.575579
  H 5.034769 -0.087506 -0.143291
  H 5.072924 -2.370998 -3.483090
  H 5.087138 -0.759840 -4.130283
  H 2.651018 -0.513010 -3.632199
  H 2.636696 -2.169123 -2.968687
  H 3.390752 -1.409443 -5.826666
  H 1.871636 -2.142467 -5.316068
  H 3.376744 -3.047686 -5.169932
  H 6.783717 -0.533005 -1.197448
 32
 15.948038
  C 0.928950 0.265164 0.387318
  C 2.390428 0.161466 0.381230
  C 3.217195 0.610356 1.541119
  C 2.468056 1.067797 2.791302
  C 3.452786 1.514161 3.869071
  C 3.002459 -0.321246 -0.770022
  C 4.398093 -0.418460 -0.959930
  C 5.091407 -0.872051 -2.066968
  C 4.614464 -1.392015 -3.378816
  C 3.127316 -1.503073 -3.699300
  C 2.942296 -2.063141 -5.108927
  O 6.411062 -0.876117 -2.034170
  H 0.454399 0.622407 1.294031
  H 1.099479 -0.806829 0.337807
  H 0.451535 0.633373 -0.521678
  H 3.829083 1.448182 1.184424
  H 3.916642 -0.180583 1.833257
  H 1.863754 0.250389 3.187920
  H 1.809093 1.904251 2.554822
  H 4.115617 0.699793 4.153444
  H 2.919371 1.838291 4.759345
  H 4.060312 2.346502 3.520563
  H 2.350477 -0.629297 -1.567967
  H 5.025942 -0.091215 -0.137901
  H 5.076648 -2.379540 -3.497341
  H 5.095313 -0.768508 -4.142249
  H 2.656914 -0.520440 -3.657253
  H 2.637982 -2.177991 -2.996712
  H 3.405411 -1.414532 -5.849253
  H 1.884822 -2.146289 -5.347870
  H 3.386827 -3.052118 -5.196373
  H 6.792213 -0.549691 -1.206065
 32
 21.980647
  C 0.940772 0.296557 0.392985
  C 2.395121 0.162592 0.384570
  C 3.215747 0.610545 1.543535
  C 2.462711 1.064841 2.793136
  C 3.446787 1.509668 3.874015
  C 3.011655 -0.325548 -0.777533
  C 4.387883 -0.422371 -0.962769
  C 5.087414 -0.877547 -2.074540
  C 4.614510 -1.395669 -3.385837
  C 3.128971 -1.506455 -3.707804
  C 2.945830 -2.064720 -5.118494
  O 6.412865 -0.883114 -2.041553
  H 0.455865 0.678949 1.274717
  H 1.232007 -0.783878 0.407124
  H 0.443361 0.579767 -0.521730
  H 3.821332 1.452816 1.186669
  H 3.919265 -0.177216 1.834206
  H 1.858263 0.246876 3.187543
  H 1.804837 1.901436 2.557280
  H 4.108787 0.695762 4.157537
  H 2.912831 1.831813 4.763184
  H 4.054272 2.341735 3.528352
  H 2.359563 -0.629324 -1.578567
  H 5.010315 -0.095254 -0.139867
  H 5.076273 -2.382172 -3.503466
  H 5.095499 -0.771024 -4.146624
  H 2.658582 -0.523825 -3.664764
  H 2.639210 -2.182323 -3.006449
  H 3.409430 -1.415789 -5.856609
  H 1.890280 -2.147699 -5.358664
  H 3.390383 -3.052385 -5.206658
  H 6.795272 -0.555612 -1.208153
 32
 26.505437
  C 0.950244 0.329416 0.398351
  C 2.390943 0.166132 0.383442
  C 3.218841 0.612250 1.550408
  C 2.459243 1.066442 2.798037
  C 3.436739 1.501749 3.885605
  C 3.010781 -0.322581 -0.782011
  C 4.396228 -0.423317 -0.973388
  C 5.091536 -0.879564 -2.085101
  C 4.619479 -1.400663 -3.399894
  C 3.134457 -1.511860 -3.720874
  C 2.949763 -2.070956 -5.129563
  O 6.413813 -0.885783 -2.053241
  H 0.469886 0.738693 1.259559
  H 1.329899 -0.747316 0.499377
  H 0.429200 0.506381 -0.526621
  H 3.822463 1.454063 1.194706
  H 3.917871 -0.177546 1.841931
  H 1.847460 0.251092 3.186407
  H 1.808356 1.907839 2.561062
  H 4.092633 0.682654 4.170996
  H 2.898325 1.824467 4.772809
  H 4.051540 2.331732 3.546109
  H 2.354349 -0.621316 -1.581516
  H 5.024685 -0.096186 -0.151732
  H 5.081123 -2.387860 -3.516153
  H 5.099643 -0.775857 -4.161534
  H 2.664575 -0.528759 -3.678380
  H 2.645595 -2.187192 -3.017999
  H 3.413355 -1.422403 -5.868815
  H 1.893194 -2.154107 -5.368978
  H 3.394684 -3.059142 -5.216979
  H 6.791375 -0.556663 -1.219055
 32
 29.386616
  C 0.951519 0.353358 0.392189
  C 2.386721 0.164982 0.376393
  C 3.211617 0.605519 1.533880
  C 2.458038 1.063241 2.786000
  C 3.443881 1.481986 3.870588
  C 3.012726 -0.323545 -0.793212
  C 4.388993 -0.419838 -0.973663
  C 5.092753 -0.876273 -2.084999
  C 4.625065 -1.397529 -3.395051
  C 3.143402 -1.508863 -3.710559
  C 2.955912 -2.069127 -5.116038
  O 6.420625 -0.881161 -2.052465
  H 0.467284 0.795031 1.256032
  H 1.403396 -0.716865 0.574337
  H 0.415165 0.440408 -0.539421
  H 3.818533 1.443179 1.176565
  H 3.903755 -0.188553 1.820967
  H 1.836709 0.251809 3.175461
  H 1.815838 1.917215 2.555207
  H 4.091205 0.653592 4.150542
  H 2.912537 1.807890 4.760909
  H 4.067861 2.306012 3.531516
  H 2.357330 -0.622313 -1.599136
  H 5.010285 -0.090957 -0.149600
  H 5.086408 -2.382962 -3.509712
  H 5.102716 -0.773561 -4.155928
  H 2.673086 -0.523475 -3.667584
  H 2.655996 -2.184507 -3.003348
  H 3.417940 -1.421228 -5.857278
  H 1.899020 -2.152784 -5.352637
  H 3.401188 -3.057452 -5.202974
  H 6.795925 -0.550820 -1.219153
 32
 31.586286
  C 0.944415 0.380438 0.400946
  C 2.367253 0.172750 0.386125
  C 3.213789 0.613033 1.550444
  C 2.471471 1.076211 2.814407
  C 3.469365 1.475544 3.895579
  C 2.986553 -0.316850 -0.788328
  C 4.362728 -0.415109 -0.974774
  C 5.069431 -0.870050 -2.081226
  C 4.621763 -1.402445 -3.410408
  C 3.144217 -1.530429 -3.759341
  C 2.992794 -2.096701 -5.168685
  O 6.385041 -0.866495 -2.033060
  H 0.469762 0.844944 1.242586
  H 1.451049 -0.676210 0.649489
  H 0.393025 0.385938 -0.527415
  H 3.827983 1.448783 1.191515
  H 3.901143 -0.191276 1.831175
  H 1.840903 0.272049 3.205197
  H 1.840821 1.941537 2.593050
  H 4.106710 0.636144 4.167650
  H 2.947469 1.805234 4.792063
  H 4.103655 2.292686 3.556286
  H 2.332844 -0.609234 -1.577859
  H 4.986249 -0.085154 -0.150751
  H 5.095557 -2.387761 -3.515272
  H 5.109190 -0.773234 -4.166847
  H 2.663215 -0.550111 -3.730034
  H 2.648708 -2.209541 -3.061754
  H 3.464991 -1.445069 -5.902133
  H 1.940017 -2.192226 -5.429019
  H 3.450781 -3.081693 -5.243212
  H 6.747540 -0.529702 -1.190489
 32
 33.231923
  C 0.952316 0.380338 0.371009
  C 2.378522 0.158997 0.372274
  C 3.223019 0.607392 1.541076
  C 2.472814 1.070548 2.787671
  C 3.462779 1.466364 3.883771
  C 3.004222 -0.326345 -0.800380
  C 4.377260 -0.421355 -0.978015
  C 5.084756 -0.872291 -2.083807
  C 4.628181 -1.396714 -3.399615
  C 3.148983 -1.517288 -3.726479
  C 2.974911 -2.079657 -5.131683
  O 6.416973 -0.869726 -2.043054
  H 0.465549 0.868297 1.203865
  H 1.510681 -0.669150 0.673730
  H 0.400042 0.319556 -0.553196
  H 3.837172 1.437841 1.189601
  H 3.904010 -0.196074 1.829326
  H 1.831642 0.267082 3.170781
  H 1.847214 1.940704 2.555912
  H 4.093691 0.623026 4.164401
  H 2.931689 1.799490 4.774971
  H 4.106424 2.281110 3.551938
  H 2.347944 -0.621215 -1.602747
  H 4.998002 -0.091735 -0.151040
  H 5.096940 -2.381048 -3.511778
  H 5.108105 -0.768721 -4.158663
  H 2.673821 -0.536708 -3.688045
  H 2.661634 -2.193278 -3.023596
  H 3.439961 -1.428378 -5.871487
  H 1.917469 -2.170121 -5.377068
  H 3.427959 -3.067403 -5.214334
  H 6.785289 -0.535110 -1.204042
 32
 34.986262
  C 0.953742 0.397860 0.396415
  C 2.380609 0.159037 0.396065
  C 3.231957 0.610990 1.555348
  C 2.480799 1.079023 2.795226
  C 3.462552 1.468039 3.888201
  C 3.001924 -0.328313 -0.789034
  C 4.371104 -0.426700 -0.975290
  C 5.077310 -0.873710 -2.080802
  C 4.629233 -1.400195 -3.410270
  C 3.150489 -1.528615 -3.757292
  C 2.996470 -2.091139 -5.169045
  O 6.408764 -0.868001 -2.034171
  H 0.471800 0.890204 1.222855
  H 1.552407 -0.644670 0.727509
  H 0.391725 0.289719 -0.514817
  H 3.852049 1.441597 1.199413
  H 3.910765 -0.198387 1.846762
  H 1.838299 0.287241 3.174859
  H 1.867491 1.944983 2.562073
  H 4.082214 0.626669 4.170551
  H 2.933513 1.803609 4.769651
  H 4.107733 2.271786 3.559695
  H 2.336863 -0.620908 -1.588619
  H 4.992676 -0.102146 -0.154677
  H 5.102022 -2.380433 -3.519154
  H 5.112319 -0.769010 -4.161292
  H 2.669397 -0.548981 -3.723901
  H 2.657260 -2.209964 -3.060373
  H 3.464728 -1.439909 -5.898607
  H 1.948808 -2.186351 -5.426728
  H 3.453184 -3.071413 -5.247548
  H 6.765596 -0.539176 -1.205286
 32
 36.486075
  C 0.954908 0.390800 0.355400
  C 2.388214 0.142342 0.378001
  C 3.235659 0.604659 1.542762
  C 2.475703 1.078792 2.785198
  C 3.460359 1.469252 3.893646
  C 3.022023 -0.340628 -0.802882
  C 4.397511 -0.434841 -0.978931
  C 5.103662 -0.878163 -2.084962
  C 4.639998 -1.398772 -3.408657
  C 3.157466 -1.516338 -3.727039
  C 2.972967 -2.074214 -5.135004
  O 6.437695 -0.874158 -2.045240
  H 0.460352 0.883402 1.172938
  H 1.593538 -0.653091 0.717194
  H 0.405319 0.246355 -0.548967
  H 3.854491 1.430521 1.188988
  H 3.911399 -0.202167 1.839266
  H 1.823972 0.284290 3.165052
  H 1.862054 1.953902 2.546155
  H 4.079584 0.620774 4.182715
  H 2.923517 1.810164 4.777980
  H 4.115053 2.276029 3.565998
  H 2.366722 -0.634369 -1.605761
  H 5.017370 -0.111006 -0.152863
  H 5.106847 -2.382674 -3.528572
  H 5.115659 -0.767727 -4.167472
  H 2.684926 -0.535605 -3.682030
  H 2.674493 -2.193730 -3.023522
  H 3.434002 -1.421163 -5.875131
  H 1.913877 -2.162172 -5.373666
  H 3.423909 -3.062093 -5.224034
  H 6.802015 -0.545657 -1.211900
 32
 38.160848
  C 0.959140 0.396552 0.358406
  C 2.382735 0.135735 0.388382
  C 3.239591 0.607457 1.553542
  C 2.486852 1.082677 2.786498
  C 3.471276 1.470624 3.891495
  C 3.017030 -0.345131 -0.796426
  C 4.383651 -0.438891 -0.970092
  C 5.097494 -0.881226 -2.082768
  C 4.642122 -1.399768 -3.411189
  C 3.163592 -1.521179 -3.739445
  C 2.990692 -2.075914 -5.148247
  O 6.423194 -0.874724 -2.039242
  H 0.460168 0.889661 1.180036
  H 1.623553 -0.645772 0.733421
  H 0.408212 0.227018 -0.541263
  H 3.855735 1.429119 1.197283
  H 3.915908 -0.198678 1.852281
  H 1.832807 0.292029 3.166055
  H 1.876560 1.957659 2.545115
  H 4.086146 0.622801 4.181538
  H 2.937913 1.814262 4.772965
  H 4.127343 2.272001 3.563482
  H 2.359550 -0.638772 -1.601245
  H 5.001062 -0.117681 -0.142127
  H 5.111696 -2.380927 -3.530337
  H 5.119505 -0.765491 -4.164370
  H 2.688533 -0.544248 -3.695356
  H 2.678864 -2.200068 -3.041950
  H 3.454150 -1.420585 -5.882745
  H 1.934937 -2.166577 -5.393998
  H 3.444898 -3.060849 -5.236178
  H 6.778855 -0.551599 -1.214337
 32
 39.437973
  C 0.955322 0.401418 0.354537
  C 2.392899 0.118839 0.393630
  C 3.247994 0.602614 1.548144
  C 2.490373 1.086941 2.782301
  C 3.471507 1.475991 3.887473
  C 3.024995 -0.357095 -0.796685
  C 4.398382 -0.452303 -0.971490
  C 5.106129 -0.886028 -2.078506
  C 4.647258 -1.398427 -3.410270
  C 3.165143 -1.518601 -3.737023
  C 2.988401 -2.068276 -5.150414
  O 6.439207 -0.877898 -2.034090
  H 0.458055 0.886932 1.171549
  H 1.656995 -0.663544 0.750992
  H 0.396304 0.207311 -0.542776
  H 3.866119 1.427872 1.181824
  H 3.925505 -0.202795 1.853338
  H 1.833691 0.301420 3.162869
  H 1.884941 1.960828 2.536290
  H 4.083107 0.626021 4.183225
  H 2.935670 1.825923 4.766921
  H 4.131947 2.274513 3.557065
  H 2.365990 -0.647707 -1.600891
  H 5.015854 -0.136342 -0.142127
  H 5.116597 -2.377990 -3.534930
  H 5.122938 -0.760928 -4.160146
  H 2.688473 -0.538062 -3.687659
  H 2.679752 -2.203024 -3.038781
  H 3.450110 -1.410339 -5.883180
  H 1.933029 -2.157586 -5.394154
  H 3.441778 -3.052567 -5.243860
  H 6.802683 -0.550849 -1.189424
 32
 40.781081
  C 0.966264 0.410375 0.345222
  C 2.393589 0.110339 0.396242
  C 3.254844 0.602523 1.551748
  C 2.493074 1.090319 2.791060
  C 3.475376 1.482122 3.900221
  C 3.027567 -0.362403 -0.795002
  C 4.400611 -0.457699 -0.970758
  C 5.107627 -0.887622 -2.076475
  C 4.648983 -1.399467 -3.414025
  C 3.166576 -1.523714 -3.745294
  C 2.994774 -2.071733 -5.163061
  O 6.442783 -0.875489 -2.029887
  H 0.463791 0.895291 1.169264
  H 1.691579 -0.670057 0.754371
  H 0.413723 0.205811 -0.541351
  H 3.867463 1.424604 1.184212
  H 3.934911 -0.202276 1.858744
  H 1.835161 0.303758 3.172153
  H 1.885299 1.966616 2.542443
  H 4.086248 0.634080 4.197705
  H 2.939935 1.832528 4.777135
  H 4.135270 2.279291 3.570350
  H 2.364086 -0.654181 -1.602105
  H 5.015469 -0.144552 -0.146539
  H 5.122272 -2.379582 -3.541767
  H 5.125336 -0.758080 -4.164509
  H 2.686974 -0.544304 -3.694751
  H 2.681766 -2.211568 -3.049318
  H 3.455554 -1.411733 -5.892763
  H 1.940571 -2.163904 -5.410024
  H 3.450858 -3.053692 -5.258043
  H 6.803175 -0.550493 -1.187344
