10
Smiles: N1=C=O.C1C
N      -0.00460      0.50130     -0.44020
C      -1.14170      0.07600     -0.14240
O      -2.24050     -0.33500      0.14540
C       1.10580      0.34570      0.50270
C       2.21370     -0.48590     -0.14680
H       1.49701      1.32770      0.76860
H       0.75140     -0.15970      1.40110
H       1.82250     -1.46800     -0.41270
H       2.56810      0.01940     -1.04520
H       3.03990     -0.60170      0.55480
