16
Smiles: N/1=N\CC.C\1C
N       0.51260      0.43610     -0.34870
N      -0.51260      0.43610      0.34870
C      -1.83190      0.43610     -0.28830
C      -2.60480     -0.81320      0.13940
C       1.83190      0.43610      0.28830
C       2.60480     -0.81320     -0.13940
H      -2.38250      1.32600      0.01640
H      -1.71220      0.43610     -1.37170
H      -3.58630     -0.81320     -0.33460
H      -2.05420     -1.70320     -0.16530
H      -2.72450     -0.81320      1.22281
H       2.38250      1.32600     -0.01640
H       1.71220      0.43610      1.37170
H       2.05420     -1.70320      0.16530
H       2.72450     -0.81320     -1.22281
H       3.58630     -0.81320      0.33460
