19
Smiles: O1C(=O)CC.C1(=O)CC
O       0.00000     -0.82100      0.00000
C      -1.14710     -0.11800      0.00000
C      -2.47140     -0.83710      0.00000
C      -3.60790      0.18720      0.00000
O      -1.11540      1.08970      0.00000
C       1.14710     -0.11800      0.00000
C       2.47140     -0.83710      0.00000
C       3.60790      0.18720      0.00000
O       1.11540      1.08970      0.00000
H      -2.54560     -1.46200     -0.89000
H      -2.54560     -1.46200      0.89000
H      -4.56590     -0.33290      0.00000
H      -3.53380      0.81220      0.89000
H      -3.53380      0.81220     -0.89000
H       2.54560     -1.46200      0.89000
H       2.54560     -1.46200     -0.89000
H       4.56590     -0.33290      0.00000
H       3.53380      0.81220     -0.89000
H       3.53380      0.81220      0.89000
