12
Smiles: C(#N)CCC
C      -1.38380     -0.13150      0.00000
C      -0.00450     -0.64570      0.00000
C       0.97730      0.52780      0.00000
C       2.41090     -0.00680      0.00000
N      -2.44820      0.26540      0.00000
H       0.15640     -1.25410      0.89000
H       0.15640     -1.25410     -0.89000
H       0.81630      1.13611     -0.89000
H       0.81630      1.13611      0.89000
H       2.57180     -0.61510      0.89000
H       2.57180     -0.61510     -0.89000
H       3.11030      0.82920      0.00000
