13
Smiles: C(N)CC
C       0.53900     -0.51370      0.01250
C      -0.56950      0.53970     -0.04050
C      -1.93310     -0.15140      0.02040
N       1.84820      0.14990     -0.04600
H       0.45910     -1.07870      0.94120
H       0.43690     -1.19140     -0.83510
H      -0.46740      1.21740      0.80710
H      -0.48960      1.10470     -0.96910
H      -2.03510     -0.82910     -0.82720
H      -2.01290     -0.71650      0.94910
H      -2.72280      0.59900     -0.01730
H       1.94180      0.83090      0.69270
H       2.59750     -0.52510     -0.01250
