15
Smiles: CCOCC
C       2.41180     -0.40210      0.00000
C       1.19850      0.52990      0.00000
O       0.00000     -0.24830      0.00000
C      -1.19850      0.52990      0.00000
C      -2.41180     -0.40210      0.00000
H       2.38700     -1.03090      0.89000
H       2.38700     -1.03090     -0.89000
H       3.32600      0.19160      0.00000
H       1.22330      1.15880      0.89000
H       1.22330      1.15880     -0.89000
H      -1.22330      1.15880      0.89000
H      -1.22330      1.15880     -0.89000
H      -2.38700     -1.03090     -0.89000
H      -2.38700     -1.03090      0.89000
H      -3.32600      0.19160      0.00000
