16
Smiles: C1(=O)CC.C1C
C       0.00000     -0.05020     -0.00200
C      -1.30510     -0.80370     -0.00140
C      -2.46800      0.19050      0.00150
O       0.00000      1.15740     -0.00030
C       1.30510     -0.80370      0.00150
C       2.46800      0.19050      0.00010
H      -1.36401     -1.42910     -0.89220
H      -1.36170     -1.43170      0.88770
H      -3.41200     -0.35450      0.00200
H      -2.40910      0.81590      0.89230
H      -2.41140      0.81850     -0.88760
H       1.36180     -1.42790      0.89320
H       1.36380     -1.43280     -0.88670
H       2.41130      0.81480     -0.89170
H       2.40930      0.81960      0.88830
H       3.41200     -0.35450      0.00260
