15
Smiles: O=C(N)CCC
O      -1.13750     -1.22180      0.00010
C      -1.05190     -0.01200      0.00190
C       0.30310      0.64760      0.00190
C       1.39290     -0.42620     -0.00070
C       2.76860      0.24340     -0.00080
N      -2.16870      0.74250     -0.00160
H       0.40410      1.27000     -0.88720
H       0.40560      1.26721      0.89270
H       1.29190     -1.04860      0.88830
H       1.29040     -1.04580     -0.89160
H       2.86970      0.86580     -0.88990
H       2.87120      0.86300      0.89010
H       3.54510     -0.52160     -0.00270
H      -3.04090      0.31800     -0.00560
H      -2.10030      1.71010     -0.00010
