 11
 0.000000
  H 1.399063 0.136237 0.389900
  C 2.473072 0.109820 0.323877
  H 3.025922 0.454385 1.181748
  C 3.083045 -0.330834 -0.773548
  C 4.514412 -0.388593 -0.917688
  C 5.130574 -0.829071 -2.015412
  H 4.601744 -1.180058 -2.889955
  O 6.472211 -0.896300 -2.183204
  H 2.505090 -0.671717 -1.622336
  H 5.104925 -0.049887 -0.073866
  H 6.892577 -0.572351 -1.375888
 11
 0.661272
  H 1.437725 0.071075 0.511709
  C 2.494356 0.104752 0.315201
  H 3.108270 0.468454 1.125468
  C 3.053395 -0.314956 -0.815039
  C 4.480695 -0.340546 -0.979074
  C 5.134205 -0.820024 -2.036412
  H 4.649322 -1.188383 -2.929124
  O 6.482889 -0.907219 -2.113495
  H 2.455050 -0.677990 -1.637732
  H 5.057321 0.018795 -0.132820
  H 6.844000 -0.631045 -1.261834
 11
 1.780506
  H 1.457912 0.049645 0.569560
  C 2.502955 0.094867 0.314245
  H 3.148740 0.422648 1.109058
  C 3.033517 -0.289551 -0.842040
  C 4.466352 -0.312082 -1.011829
  C 5.137751 -0.832240 -2.040041
  H 4.675680 -1.227567 -2.936975
  O 6.490818 -0.921796 -2.070562
  H 2.426298 -0.633443 -1.660191
  H 5.038751 0.070319 -0.170879
  H 6.809311 -0.635936 -1.204598
 11
 6.426322
  H 1.568909 0.043864 0.667662
  C 2.592593 0.035366 0.335366
  H 3.318439 0.339697 1.076694
  C 2.983562 -0.280727 -0.894525
  C 4.399021 -0.270302 -1.150606
  C 5.151761 -0.851670 -2.084572
  H 4.809190 -1.326857 -2.989202
  O 6.499888 -0.904987 -1.911912
  H 2.296624 -0.595922 -1.657861
  H 4.955830 0.190873 -0.330777
  H 6.602787 -0.594090 -0.998453
 11
 9.810015
  H 1.601063 0.067137 0.695869
  C 2.628365 0.058932 0.335314
  H 3.383931 0.407721 1.034547
  C 2.968368 -0.319219 -0.887947
  C 4.372193 -0.309719 -1.183413
  C 5.158497 -0.871691 -2.101944
  H 4.867740 -1.357134 -3.019203
  O 6.498046 -0.867964 -1.871352
  H 2.251695 -0.657479 -1.611830
  H 4.925113 0.169364 -0.368262
  H 6.517331 -0.535617 -0.958420
 11
 11.197568
  H 1.647709 0.008349 0.770282
  C 2.624069 0.010163 0.326133
  H 3.390249 0.399129 0.979617
  C 2.956527 -0.297907 -0.919160
  C 4.364690 -0.234160 -1.223418
  C 5.150136 -0.889801 -2.072929
  H 4.853166 -1.444540 -2.948404
  O 6.490842 -0.872085 -1.836191
  H 2.257593 -0.684482 -1.634270
  H 4.908571 0.313136 -0.452408
  H 6.534136 -0.524921 -0.925952
 11
 15.449841
  H 1.726647 -0.067729 0.820362
  C 2.680448 -0.014427 0.329728
  H 3.471221 0.339089 0.962242
  C 2.940487 -0.282057 -0.942289
  C 4.332191 -0.154620 -1.315327
  C 5.153501 -0.882870 -2.070105
  H 4.911371 -1.461587 -2.948748
  O 6.476137 -0.887002 -1.739039
  H 2.197838 -0.651020 -1.634866
  H 4.863747 0.454436 -0.590167
  H 6.440694 -0.613556 -0.811197
 11
 23.709347
  H 1.861432 -0.097833 0.872820
  C 2.785514 -0.029079 0.324189
  H 3.594882 0.394164 0.894110
  C 2.917796 -0.313638 -0.964835
  C 4.272312 -0.150805 -1.436078
  C 5.168552 -0.894986 -2.087188
  H 5.019450 -1.587957 -2.896535
  O 6.451514 -0.821658 -1.611958
  H 2.124234 -0.714631 -1.571232
  H 4.776097 0.561816 -0.776130
  H 6.249257 -0.576813 -0.692091
 11
 29.665859
  H 2.020324 -0.403755 0.897781
  C 2.864191 -0.097376 0.291207
  H 3.604229 0.496935 0.799685
  C 2.930603 -0.242252 -1.027906
  C 4.259645 0.052717 -1.590828
  C 5.122535 -0.894157 -1.994326
  H 4.882216 -1.733986 -2.615920
  O 6.412798 -0.877608 -1.509938
  H 2.163054 -0.719185 -1.596071
  H 4.744017 0.893192 -1.078846
  H 6.270675 -0.725689 -0.556096
 11
 36.291701
  H 2.095978 -0.452027 0.849518
  C 2.936163 -0.113004 0.265779
  H 3.672663 0.439644 0.794393
  C 2.952528 -0.211566 -1.067473
  C 4.287389 0.081480 -1.628976
  C 5.127469 -0.918861 -1.971133
  H 4.913135 -1.737136 -2.637095
  O 6.391560 -0.917601 -1.411023
  H 2.118208 -0.612170 -1.631236
  H 4.754410 0.905859 -1.113074
  H 6.113853 -0.799092 -0.499941
