 20
 0.000000
  C 1.006844 -0.072102 0.046512
  C 2.503134 -0.082648 0.025809
  C 3.219150 -0.595283 -0.980582
  C 4.656935 -0.605355 -1.000352
  C 5.378813 -1.120097 -2.010875
  C 6.817164 -1.129909 -2.030135
  C 7.534105 -1.642141 -3.035737
  C 9.024031 -1.662359 -3.075420
  H 0.644400 0.394097 0.961733
  H 0.611428 -1.086950 0.008197
  H 0.611429 0.493594 -0.796914
  H 3.002975 0.352895 0.880857
  H 2.708752 -1.028885 -1.831805
  H 5.160252 -0.170190 -0.146055
  H 4.875423 -1.555225 -2.865102
  H 7.326155 -0.695874 -1.178051
  H 7.034160 -2.078122 -3.891627
  H 9.459091 -1.209442 -2.186276
  H 9.382581 -1.116668 -3.949606
  H 9.382579 -2.690315 -3.148017
 20
 -0.189618
  C 1.003706 -0.071940 0.059399
  C 2.497167 -0.060802 0.018298
  C 3.219422 -0.599751 -0.968218
  C 4.653693 -0.591819 -1.008290
  C 5.381098 -1.130047 -2.002859
  C 6.817001 -1.127961 -2.038163
  C 7.540776 -1.655444 -3.028404
  C 9.028674 -1.663086 -3.079103
  H 0.635193 0.309006 1.006541
  H 0.622142 -1.082084 -0.082636
  H 0.593902 0.548860 -0.743485
  H 3.003303 0.418550 0.844088
  H 2.715032 -1.081388 -1.798351
  H 5.158041 -0.120273 -0.174549
  H 4.877671 -1.598623 -2.836566
  H 7.318541 -0.666632 -1.196742
  H 7.040153 -2.118000 -3.870096
  H 9.453284 -1.181667 -2.201206
  H 9.379803 -1.141846 -3.971431
  H 9.399888 -2.686880 -3.133341
 20
 -0.266317
  C 0.983928 -0.149025 0.049819
  C 2.474921 -0.077122 -0.017812
  C 3.206184 -0.613529 -0.998727
  C 4.638991 -0.547765 -1.052713
  C 5.386311 -1.135965 -2.003048
  C 6.821224 -1.081968 -2.036871
  C 7.569666 -1.651157 -2.984804
  C 9.057235 -1.606613 -3.030472
  H 0.622292 0.139846 1.033198
  H 0.634504 -1.156411 -0.171720
  H 0.537449 0.521698 -0.686596
  H 2.972661 0.454167 0.782693
  H 2.714946 -1.149409 -1.801733
  H 5.126582 0.007555 -0.260887
  H 4.901823 -1.690278 -2.797119
  H 7.299292 -0.542850 -1.227807
  H 7.091300 -2.190709 -3.792611
  H 9.458029 -1.036570 -2.195747
  H 9.393955 -1.151313 -3.962252
  H 9.466795 -2.616719 -2.995549
 20
 -0.081826
  C 0.986816 -0.191855 0.061724
  C 2.478245 -0.116955 0.007633
  C 3.208020 -0.532757 -1.031519
  C 4.642268 -0.468459 -1.080326
  C 5.389539 -1.085221 -2.011562
  C 6.824826 -1.053589 -2.037793
  C 7.569641 -1.657941 -2.966619
  C 9.058592 -1.643656 -2.999082
  H 0.625658 -0.063363 1.078828
  H 0.632042 -1.146986 -0.321559
  H 0.545859 0.592960 -0.554522
  H 2.973556 0.328476 0.860591
  H 2.713764 -0.988463 -1.881373
  H 5.127230 0.097924 -0.294675
  H 4.902502 -1.653630 -2.794758
  H 7.307594 -0.506761 -1.237342
  H 7.088303 -2.204887 -3.767709
  H 9.462232 -1.014872 -2.209546
  H 9.414175 -1.275051 -3.962283
  H 9.447696 -2.654282 -2.873519
 20
 -0.739641
  C 1.018206 -0.092530 0.120009
  C 2.502680 -0.021038 -0.003895
  C 3.212681 -0.620472 -0.963222
  C 4.641916 -0.529201 -1.065467
  C 5.379786 -1.175657 -1.984408
  C 6.811343 -1.083828 -2.057705
  C 7.558650 -1.713822 -2.967048
  C 9.043217 -1.629811 -3.049320
  H 0.712815 -0.026822 1.162209
  H 0.634562 -1.017082 -0.307075
  H 0.556361 0.740483 -0.414043
  H 3.015916 0.579376 0.736171
  H 2.709969 -1.227253 -1.706009
  H 5.136888 0.100990 -0.336671
  H 4.892667 -1.806748 -2.716799
  H 7.285500 -0.458085 -1.310923
  H 7.081818 -2.339082 -3.711602
  H 9.440944 -0.965526 -2.285697
  H 9.348296 -1.262992 -4.029826
  H 9.485264 -2.618668 -2.919989
 20
 -1.011135
  C 1.025462 -0.098924 0.144667
  C 2.496839 0.036628 -0.043544
  C 3.213846 -0.624689 -0.955590
  C 4.637465 -0.496120 -1.087053
  C 5.384859 -1.186083 -1.966127
  C 6.814286 -1.070277 -2.052856
  C 7.569670 -1.735866 -2.929223
  C 9.053174 -1.629979 -3.022676
  H 0.777874 -0.146486 1.204567
  H 0.648239 -0.990854 -0.350659
  H 0.510492 0.768143 -0.273902
  H 2.997471 0.724821 0.625772
  H 2.723818 -1.317478 -1.627941
  H 5.121470 0.196195 -0.409283
  H 4.908079 -1.875746 -2.650829
  H 7.279441 -0.398768 -1.342222
  H 7.101422 -2.408900 -3.636763
  H 9.442534 -0.924000 -2.292180
  H 9.347602 -1.303156 -4.020746
  H 9.513456 -2.604404 -2.850415
 20
 -0.705323
  C 1.054077 -0.118563 0.228530
  C 2.496433 0.062601 -0.095207
  C 3.188100 -0.630219 -1.002706
  C 4.603021 -0.461683 -1.181749
  C 5.374694 -1.204383 -1.993236
  C 6.801253 -1.049924 -2.067803
  C 7.594060 -1.749702 -2.881988
  C 9.074523 -1.605160 -2.953622
  H 0.906530 -0.130447 1.307165
  H 0.670292 -1.044126 -0.194988
  H 0.468290 0.710282 -0.173739
  H 3.016529 0.805808 0.497335
  H 2.698998 -1.384513 -1.605646
  H 5.068977 0.303842 -0.572709
  H 4.927646 -1.967962 -2.616854
  H 7.229085 -0.318890 -1.391366
  H 7.160717 -2.482300 -3.551388
  H 9.426447 -0.836911 -2.269287
  H 9.381107 -1.342645 -3.966621
  H 9.558962 -2.549285 -2.701495
 20
 -0.312771
  C 1.076208 -0.091189 0.279057
  C 2.492392 0.074220 -0.147499
  C 3.164346 -0.659704 -1.036381
  C 4.572677 -0.465990 -1.246504
  C 5.372661 -1.241506 -1.996605
  C 6.795265 -1.044990 -2.062149
  C 7.623006 -1.767862 -2.819487
  C 9.099489 -1.581679 -2.876894
  H 1.012444 -0.107959 1.365964
  H 0.648737 -1.009592 -0.118005
  H 0.473771 0.748501 -0.072237
  H 3.031687 0.856302 0.375825
  H 2.678806 -1.458998 -1.580364
  H 5.017320 0.354974 -0.696009
  H 4.958629 -2.062740 -2.567151
  H 7.189745 -0.262432 -1.422560
  H 7.223828 -2.552841 -3.449621
  H 9.415266 -0.758517 -2.240466
  H 9.416505 -1.378361 -3.900221
  H 9.607726 -2.490937 -2.553381
 20
 -0.108445
  C 1.071170 -0.059415 0.275954
  C 2.468297 0.073326 -0.218522
  C 3.162136 -0.755106 -0.998812
  C 4.557587 -0.514550 -1.249586
  C 5.396355 -1.311933 -1.933170
  C 6.801091 -1.027540 -2.045229
  C 7.669056 -1.782761 -2.721040
  C 9.130178 -1.512671 -2.824129
  H 1.067298 -0.088451 1.366638
  H 0.597099 -0.961620 -0.107104
  H 0.475726 0.801774 -0.030234
  H 2.990825 0.941286 0.170748
  H 2.714427 -1.644658 -1.419959
  H 4.961185 0.383058 -0.795564
  H 5.034380 -2.216078 -2.403975
  H 7.149621 -0.145160 -1.516661
  H 7.317109 -2.665369 -3.241992
  H 9.396346 -0.597273 -2.301828
  H 9.426673 -1.421789 -3.870090
  H 9.697797 -2.338997 -2.395728
 20
 0.817670
  C 1.131663 -0.087278 0.379604
  C 2.509816 0.026062 -0.167777
  C 3.133410 -0.708401 -1.089049
  C 4.527643 -0.465894 -1.355505
  C 5.379171 -1.282279 -1.995846
  C 6.793259 -1.021230 -2.047251
  C 7.676734 -1.788393 -2.688526
  C 9.146249 -1.546788 -2.714646
  H 1.173689 -0.239478 1.457801
  H 0.586824 -0.914549 -0.071594
  H 0.580217 0.835773 0.198761
  H 3.083652 0.822328 0.297849
  H 2.646870 -1.537194 -1.584279
  H 4.928489 0.434623 -0.904195
  H 5.026068 -2.189854 -2.467637
  H 7.136986 -0.160554 -1.480372
  H 7.332573 -2.651363 -3.244670
  H 9.399306 -0.620909 -2.203510
  H 9.504921 -1.493426 -3.742633
  H 9.672423 -2.369314 -2.228077
