 17
 0.000000
  H 1.455031 0.112846 0.332434
  C 2.536282 0.112235 0.330972
  C 3.212924 0.597582 1.535872
  H 2.502474 0.903209 2.295631
  C 3.160966 -0.347138 -0.810568
  C 4.548893 -0.410693 -0.969096
  C 5.219393 -0.865930 -2.106144
  C 4.571254 -1.357575 -3.334531
  H 3.492722 -1.337785 -3.287199
  O 6.522688 -0.882714 -2.148951
  H 3.865134 1.440871 1.299479
  H 3.865915 -0.173732 1.949543
  H 2.528452 -0.673315 -1.622258
  H 5.161637 -0.078944 -0.141107
  H 4.913716 -2.372940 -3.535445
  H 4.914981 -0.762116 -4.180690
  H 6.975354 -0.562019 -1.349259
 17
 0.118416
  H 1.467586 -0.133205 0.416865
  C 2.544361 -0.046210 0.383988
  C 3.189553 0.677387 1.482469
  H 2.501294 0.850838 2.303221
  C 3.187194 -0.572862 -0.714195
  C 4.574810 -0.585853 -0.882788
  C 5.237821 -0.934520 -2.063269
  C 4.566748 -1.220341 -3.345761
  H 3.537218 -0.887636 -3.369214
  O 6.539493 -0.990622 -2.115063
  H 3.540619 1.649726 1.126129
  H 4.074944 0.156926 1.846435
  H 2.571055 -1.005957 -1.488167
  H 5.187669 -0.303478 -0.036964
  H 4.598839 -2.295965 -3.530232
  H 5.130417 -0.760570 -4.155657
  H 7.004585 -0.844711 -1.268512
 17
 2.825576
  H 1.479074 -0.276569 0.440490
  C 2.552489 -0.166332 0.378779
  C 3.169757 0.829971 1.258333
  H 2.553148 1.019865 2.132300
  C 3.218177 -0.867258 -0.589781
  C 4.615754 -0.891416 -0.748138
  C 5.261061 -0.987145 -1.978928
  C 4.547543 -0.950499 -3.272130
  H 3.574422 -0.480770 -3.197567
  O 6.561476 -1.028542 -2.076932
  H 3.261514 1.778118 0.721510
  H 4.178776 0.548280 1.552343
  H 2.627100 -1.432704 -1.298715
  H 5.227702 -0.802462 0.140748
  H 4.413879 -1.974013 -3.629123
  H 5.162182 -0.443211 -4.012126
  H 7.046701 -1.118914 -1.234307
 17
 9.972343
  H 1.478223 -0.330910 0.383935
  C 2.549752 -0.228696 0.293626
  C 3.175425 0.931368 0.949217
  H 2.595324 1.242850 1.814040
  C 3.229176 -1.110976 -0.471815
  C 4.647787 -1.144719 -0.646242
  C 5.271809 -0.970027 -1.874083
  C 4.516773 -0.668230 -3.107571
  H 3.575190 -0.173001 -2.899639
  O 6.568192 -1.022023 -2.015639
  H 3.199813 1.782381 0.265160
  H 4.205435 0.717476 1.228026
  H 2.668455 -1.868575 -1.011559
  H 5.254870 -1.336799 0.230946
  H 4.299275 -1.607651 -3.620920
  H 5.127986 -0.075461 -3.783357
  H 7.075597 -1.255285 -1.214746
 17
 16.404871
  H 1.479024 -0.322727 0.259225
  C 2.550817 -0.234996 0.166493
  C 3.162109 1.016554 0.691175
  H 2.561547 1.431421 1.495025
  C 3.251650 -1.220437 -0.391174
  C 4.671628 -1.315487 -0.621772
  C 5.287391 -0.924113 -1.807358
  C 4.499967 -0.433859 -2.952425
  H 3.579167 0.037049 -2.620270
  O 6.574378 -1.004331 -1.992910
  H 3.195069 1.755264 -0.111226
  H 4.176733 0.856142 1.043998
  H 2.728085 -2.142331 -0.652004
  H 5.260544 -1.786184 0.158322
  H 4.226098 -1.273418 -3.595314
  H 5.102343 0.237637 -3.559806
  H 7.099223 -1.327366 -1.234820
 17
 9.823205
  H 1.500983 -0.381992 0.264894
  C 2.567455 -0.299118 0.114430
  C 3.170599 1.017379 0.399771
  H 2.557485 1.585996 1.092559
  C 3.260978 -1.394620 -0.271025
  C 4.644912 -1.500255 -0.597157
  C 5.265686 -0.897980 -1.683046
  C 4.500244 -0.221300 -2.750766
  H 3.548385 0.148330 -2.389754
  O 6.555156 -0.969900 -1.886056
  H 3.231640 1.594318 -0.525535
  H 4.180632 0.929926 0.791758
  H 2.747390 -2.353027 -0.229116
  H 5.213988 -2.197965 0.005264
  H 4.298237 -0.939700 -3.547239
  H 5.099684 0.571008 -3.193022
  H 7.071222 -1.412748 -1.183534
 17
 5.713519
  H 1.518669 -0.393901 0.299620
  C 2.574317 -0.316677 0.071286
  C 3.153455 1.027355 0.165360
  H 2.649965 1.601944 0.943360
  C 3.261442 -1.471062 -0.184122
  C 4.594815 -1.620271 -0.612462
  C 5.253844 -0.890542 -1.601980
  C 4.548084 -0.091505 -2.627127
  H 3.528772 0.132133 -2.348431
  O 6.545056 -0.971817 -1.777586
  H 2.972333 1.575764 -0.763006
  H 4.224742 1.007761 0.344109
  H 2.762912 -2.402920 0.078398
  H 5.131088 -2.453368 -0.176198
  H 4.526009 -0.678876 -3.552741
  H 5.110826 0.806673 -2.856579
  H 7.029643 -1.509595 -1.122469
 17
 4.093120
  H 1.506152 -0.348118 0.224229
  C 2.564923 -0.298153 0.007065
  C 3.147976 1.045264 0.021179
  H 2.827187 1.563634 0.926333
  C 3.244073 -1.479894 -0.141148
  C 4.557585 -1.678086 -0.595315
  C 5.250708 -0.927282 -1.546794
  C 4.595172 -0.063274 -2.550364
  H 3.519677 -0.045746 -2.438189
  O 6.544433 -1.029415 -1.694916
  H 2.734209 1.640952 -0.795373
  H 4.230962 1.038129 -0.032466
  H 2.742691 -2.373538 0.214175
  H 5.057686 -2.559774 -0.212310
  H 4.849077 -0.447724 -3.539284
  H 5.008801 0.943339 -2.515873
  H 6.999256 -1.613242 -1.058957
 17
 6.657612
  H 1.495334 -0.175371 -0.099248
  C 2.574402 -0.251795 -0.116479
  C 3.280131 1.021235 0.070926
  H 2.794651 1.585483 0.866938
  C 3.177484 -1.481807 -0.206147
  C 4.502168 -1.705729 -0.599797
  C 5.206065 -0.885228 -1.488345
  C 4.538685 -0.141418 -2.579125
  H 3.459372 -0.190391 -2.516881
  O 6.507031 -0.803423 -1.517301
  H 3.176007 1.650446 -0.816300
  H 4.332824 0.888605 0.299528
  H 2.609360 -2.346180 0.115135
  H 4.985813 -2.608034 -0.247980
  H 4.861242 -0.591071 -3.519408
  H 4.887574 0.889571 -2.614537
  H 6.981422 -1.344787 -0.858009
 17
 14.788205
  H 1.600267 0.000488 -0.414068
  C 2.650027 -0.177777 -0.221374
  C 3.411948 1.006582 0.196348
  H 2.802678 1.592939 0.884192
  C 3.162933 -1.464477 -0.230383
  C 4.459320 -1.732088 -0.644761
  C 5.130882 -0.832251 -1.499950
  C 4.458326 -0.259344 -2.685768
  H 3.389315 -0.432210 -2.684438
  O 6.394480 -0.543003 -1.415069
  H 3.602211 1.677146 -0.645887
  H 4.356135 0.747953 0.664882
  H 2.545390 -2.273516 0.140043
  H 4.939100 -2.663902 -0.381781
  H 4.896771 -0.746473 -3.559983
  H 4.683206 0.800037 -2.797283
  H 6.891640 -0.998365 -0.708146
 17
 27.199339
  H 1.810652 0.158135 -0.709760
  C 2.786608 -0.095664 -0.314285
  C 3.514422 0.998315 0.343445
  H 2.805273 1.587413 0.927393
  C 3.171545 -1.454465 -0.226545
  C 4.408084 -1.774728 -0.695169
  C 5.013872 -0.774219 -1.530412
  C 4.386880 -0.380319 -2.807107
  H 3.352297 -0.692272 -2.879488
  O 6.195455 -0.288115 -1.331550
  H 3.933992 1.706733 -0.376082
  H 4.308923 0.634081 0.987651
  H 2.501808 -2.181272 0.214362
  H 4.904060 -2.716401 -0.522322
  H 4.957481 -0.872253 -3.599449
  H 4.487163 0.688481 -2.990226
  H 6.686062 -0.645009 -0.564634
 17
 33.094808
  H 2.134853 0.233663 -0.990967
  C 3.003788 -0.072422 -0.420337
  C 3.644732 0.967750 0.395830
  H 2.869184 1.594024 0.843313
  C 3.214377 -1.493322 -0.195487
  C 4.382682 -1.856960 -0.725934
  C 4.877637 -0.724107 -1.522012
  C 4.312577 -0.438986 -2.859994
  H 3.325771 -0.865038 -2.996510
  O 5.970927 -0.087565 -1.236864
  H 4.235525 1.657848 -0.212888
  H 4.273873 0.551176 1.177211
  H 2.496373 -2.123148 0.306948
  H 4.903544 -2.795067 -0.637023
  H 4.984931 -0.890800 -3.596218
  H 4.312964 0.628853 -3.068240
  H 6.449973 -0.393627 -0.442364
 17
 30.206457
  H 2.435952 0.271166 -1.193599
  C 3.200076 -0.054119 -0.497192
  C 3.681947 0.973851 0.445278
  H 2.822695 1.552970 0.795236
  C 3.241725 -1.487544 -0.143859
  C 4.337609 -1.894698 -0.773108
  C 4.749396 -0.666085 -1.508515
  C 4.269986 -0.450463 -2.906867
  H 3.307215 -0.915049 -3.087961
  O 5.848467 -0.009584 -1.210058
  H 4.325561 1.701100 -0.052498
  H 4.199878 0.547544 1.299293
  H 2.527275 -2.024957 0.453566
  H 4.856905 -2.836143 -0.767970
  H 5.005708 -0.910273 -3.572511
  H 4.247062 0.608238 -3.152471
  H 6.323916 -0.331865 -0.422498
 17
 28.523226
  H 2.617243 0.279258 -1.259790
  C 3.345998 -0.051244 -0.521341
  C 3.696285 0.990886 0.476030
  H 2.760369 1.400455 0.867379
  C 3.227955 -1.468223 -0.101141
  C 4.253915 -1.915938 -0.826676
  C 4.661148 -0.641611 -1.515904
  C 4.286777 -0.459252 -2.963922
  H 3.361623 -0.974162 -3.199825
  O 5.853469 -0.106105 -1.246088
  H 4.232328 1.818708 0.015939
  H 4.259230 0.597243 1.317995
  H 2.572213 -1.930059 0.610393
  H 4.789133 -2.849087 -0.848996
  H 5.096587 -0.871171 -3.566429
  H 4.206593 0.594809 -3.217693
  H 6.251526 -0.396943 -0.406628
 17
 30.588968
  H 2.608426 0.316273 -1.226256
  C 3.376980 -0.050580 -0.543726
  C 3.756123 0.949586 0.504501
  H 2.866044 1.524742 0.769839
  C 3.178824 -1.470292 -0.121144
  C 4.255255 -1.877229 -0.792783
  C 4.628710 -0.583339 -1.510993
  C 4.253985 -0.499948 -2.972573
  H 3.410653 -1.144499 -3.197212
  O 5.854376 -0.076723 -1.306064
  H 4.489428 1.658075 0.124181
  H 4.124485 0.483370 1.413493
  H 2.400040 -1.946211 0.436998
  H 4.914577 -2.726760 -0.720011
  H 5.115730 -0.797374 -3.566386
  H 4.014017 0.523512 -3.252832
  H 6.224740 -0.265038 -0.425730
