19
 0
 C -1.07875241 -0.19021299 -0.01743045
 C -1.41950286 -1.42734251 0.80443406
 C -0.96862171 -1.23701488 2.25171741
 C -2.88624114 -1.86115183 0.78702616
 C -3.94284973 -1.01936700 0.11846772
 O -3.22388800 -2.90980070 1.34835194
 H 0.00000000 0.00000000 0.00000000
 H -1.57869077 0.70313475 0.37236155
 H -1.37183527 -0.31929832 -1.06457387
 H -0.85929275 -2.26638812 0.37125516
 H -1.52856260 -0.43042716 2.73753986
 H 0.09787019 -0.99268236 2.30067969
 H -1.12772775 -2.14836673 2.83838280
 H -3.54157419 -0.15221256 -0.40276093
 H -4.64754015 -0.66713971 0.87649594
 H -4.46833393 -1.63677013 -0.61591635
 O 2.95284803 -0.16801267 0.05299053
 H 3.17725854 0.04440017 0.97140631
 H 2.00000000 0.00000000 0.00000000
