 19
 0.000000
  C -1.094050 -0.172979 -0.029138
  C -1.405450 -1.387088 0.793386
  C -1.048253 -1.239736 2.254728
  C -2.898097 -1.905741 0.804628
  C -3.883978 -1.017893 0.134655
  O -3.158533 -2.924166 1.354020
  H -0.016470 0.003990 -0.015030
  H -1.554442 0.730392 0.367772
  H -1.365827 -0.308844 -1.073298
  H -0.894599 -2.256500 0.358397
  H -1.594317 -0.431018 2.740301
  H 0.009170 -0.981809 2.328977
  H -1.237006 -2.159682 2.801636
  H -3.457938 -0.157263 -0.359185
  H -4.590891 -0.702462 0.905679
  H -4.433247 -1.636666 -0.577982
  O 2.956152 -0.183469 0.038242
  H 3.240244 0.050702 0.922603
  H 2.012097 0.001577 -0.019965
 19
 1.328248
  C -1.044362 -0.184084 -0.032628
  C -1.358720 -1.389424 0.798456
  C -1.018522 -1.244709 2.265162
  C -2.858006 -1.896706 0.795578
  C -3.824141 -0.992396 0.129491
  O -3.122938 -2.920123 1.337568
  H 0.042664 -0.028630 -0.018504
  H -1.485827 0.731536 0.365111
  H -1.316288 -0.324939 -1.086107
  H -0.873905 -2.272559 0.370018
  H -1.551010 -0.416348 2.740795
  H 0.037290 -1.007030 2.348693
  H -1.226444 -2.166028 2.820267
  H -3.383533 -0.125286 -0.355738
  H -4.532800 -0.678532 0.896678
  H -4.378634 -1.595850 -0.589250
  O 2.708108 -0.211300 0.044252
  H 3.003840 0.078867 0.919435
  H 1.759234 -0.030956 -0.019089
 19
 2.999688
  C -0.992123 -0.191777 -0.037558
  C -1.321013 -1.388812 0.789873
  C -0.985298 -1.235752 2.254225
  C -2.838308 -1.894871 0.781577
  C -3.804680 -0.978528 0.135742
  O -3.103437 -2.925157 1.308756
  H 0.101395 -0.055876 -0.012698
  H -1.413466 0.734821 0.356507
  H -1.254866 -0.328210 -1.087425
  H -0.841800 -2.282856 0.364539
  H -1.497257 -0.391801 2.715593
  H 0.089316 -1.025820 2.338384
  H -1.214141 -2.136444 2.814300
  H -3.367044 -0.106536 -0.335639
  H -4.512957 -0.676435 0.913016
  H -4.368114 -1.570726 -0.590016
  O 2.517833 -0.261697 0.095095
  H 2.819538 0.130392 0.917522
  H 1.563071 -0.081976 0.010511
 19
 6.265393
  C -0.972381 -0.187321 -0.037761
  C -1.297860 -1.386847 0.799178
  C -0.971506 -1.239389 2.263594
  C -2.809143 -1.879273 0.780437
  C -3.774760 -0.968063 0.128152
  O -3.075211 -2.906873 1.306225
  H 0.152888 -0.051520 -0.020279
  H -1.382961 0.739643 0.356984
  H -1.235148 -0.322364 -1.082445
  H -0.817352 -2.281864 0.376597
  H -1.485497 -0.399204 2.725069
  H 0.096676 -1.033972 2.353179
  H -1.200961 -2.141653 2.817875
  H -3.339736 -0.100535 -0.343655
  H -4.485907 -0.663087 0.900262
  H -4.332870 -1.562382 -0.598271
  O 2.391041 -0.285596 0.090389
  H 2.708664 0.130352 0.901586
  H 1.420223 -0.112323 0.017778
 19
 12.109238
  C -0.943764 -0.207485 -0.045031
  C -1.276192 -1.393818 0.785976
  C -0.943736 -1.232188 2.251844
  C -2.802284 -1.881845 0.770025
  C -3.765491 -0.954603 0.137260
  O -3.075688 -2.916240 1.281495
  H 0.200904 -0.085895 -0.011478
  H -1.343009 0.727735 0.348225
  H -1.204633 -0.346072 -1.093494
  H -0.800946 -2.287495 0.372481
  H -1.446068 -0.378097 2.700329
  H 0.126997 -1.048416 2.338645
  H -1.186189 -2.124541 2.818846
  H -3.321062 -0.077697 -0.325342
  H -4.471145 -0.655879 0.917619
  H -4.334686 -1.532564 -0.594639
  O 2.281364 -0.309785 0.146490
  H 2.616390 0.185894 0.898884
  H 1.292870 -0.119963 0.039546
 19
 21.383462
  C -0.926596 -0.213029 -0.052029
  C -1.262820 -1.394643 0.785317
  C -0.939434 -1.234356 2.255964
  C -2.779616 -1.864631 0.764485
  C -3.743791 -0.944058 0.139417
  O -3.057922 -2.897439 1.281781
  H 0.248490 -0.099535 -0.009838
  H -1.317165 0.731823 0.343588
  H -1.176849 -0.349979 -1.104588
  H -0.777805 -2.302641 0.376658
  H -1.439384 -0.378416 2.699956
  H 0.141490 -1.063665 2.352900
  H -1.195389 -2.130369 2.820913
  H -3.304774 -0.076987 -0.321690
  H -4.439587 -0.644928 0.916406
  H -4.313666 -1.517298 -0.582959
  O 2.195701 -0.311856 0.144587
  H 2.527146 0.185569 0.903904
  H 1.192382 -0.108218 0.024217
 19
 33.968821
  C -0.935745 -0.221700 -0.046797
  C -1.261340 -1.402041 0.787360
  C -0.933325 -1.234103 2.264636
  C -2.779166 -1.865031 0.760029
  C -3.740456 -0.939664 0.137068
  O -3.063689 -2.899922 1.270261
  H 0.296926 -0.102498 -0.005850
  H -1.310879 0.725766 0.348803
  H -1.173243 -0.356668 -1.095647
  H -0.776573 -2.300403 0.381191
  H -1.435565 -0.378838 2.704923
  H 0.143187 -1.065142 2.362719
  H -1.188836 -2.123763 2.829871
  H -3.294496 -0.070197 -0.322900
  H -4.441025 -0.641779 0.912049
  H -4.310880 -1.508237 -0.590514
  O 2.203869 -0.310945 0.138197
  H 2.527634 0.197314 0.893024
  H 1.135648 -0.098955 0.013814
 19
 51.533444
  C -0.957745 -0.221668 -0.047479
  C -1.275227 -1.401660 0.786605
  C -0.945874 -1.232509 2.260415
  C -2.793359 -1.869438 0.763777
  C -3.768341 -0.944367 0.142295
  O -3.070205 -2.907528 1.271554
  H 0.380006 -0.090567 -0.003562
  H -1.327087 0.723828 0.346938
  H -1.188057 -0.355444 -1.100298
  H -0.785800 -2.301090 0.379937
  H -1.452368 -0.376663 2.699697
  H 0.130754 -1.061499 2.358898
  H -1.200653 -2.124613 2.827045
  H -3.329809 -0.071901 -0.317250
  H -4.471135 -0.650399 0.922972
  H -4.341495 -1.516619 -0.587475
  O 2.315528 -0.306143 0.145148
  H 2.634970 0.215222 0.890033
  H 1.141224 -0.081169 0.009931
 19
 73.089041
  C -0.999298 -0.223585 -0.051793
  C -1.300121 -1.402557 0.781789
  C -0.965144 -1.229651 2.256006
  C -2.816510 -1.879748 0.765055
  C -3.799477 -0.952534 0.151460
  O -3.083852 -2.921840 1.268527
  H 0.468574 -0.075474 -0.003502
  H -1.360864 0.718475 0.340719
  H -1.220089 -0.356696 -1.106415
  H -0.808793 -2.292592 0.377033
  H -1.475378 -0.373454 2.697064
  H 0.104416 -1.056480 2.350602
  H -1.216271 -2.122333 2.824769
  H -3.364436 -0.073334 -0.305972
  H -4.501852 -0.664481 0.937742
  H -4.375269 -1.523215 -0.579922
  O 2.473664 -0.300680 0.157602
  H 2.792603 0.245663 0.885894
  H 1.166864 -0.062084 0.006530
 19
 93.403745
  C -1.082205 -0.224010 -0.050396
  C -1.346910 -1.396110 0.774584
  C -1.014043 -1.219864 2.246991
  C -2.867402 -1.892838 0.767529
  C -3.871306 -0.980596 0.164265
  O -3.103892 -2.936749 1.275281
  H 0.597316 -0.040141 -0.007315
  H -1.414478 0.727028 0.350919
  H -1.271985 -0.330068 -1.111636
  H -0.843498 -2.289695 0.369900
  H -1.542074 -0.370880 2.684369
  H 0.063307 -1.035100 2.351516
  H -1.257795 -2.121064 2.812179
  H -3.457416 -0.097239 -0.294021
  H -4.572593 -0.702454 0.958099
  H -4.451491 -1.558469 -0.564676
  O 2.787410 -0.288071 0.154309
  H 3.101237 0.258789 0.882364
  H 1.276449 -0.009481 -0.009400
 19
 105.046700
  C -1.208908 -0.240725 -0.037638
  C -1.412996 -1.393535 0.780016
  C -1.111595 -1.216245 2.260211
  C -2.958439 -1.921819 0.770683
  C -3.966579 -1.013353 0.190393
  O -3.142695 -2.985063 1.249415
  H 0.751362 0.011053 -0.028566
  H -1.483398 0.739696 0.359951
  H -1.346445 -0.329510 -1.119903
  H -0.905355 -2.275492 0.359257
  H -1.654798 -0.383745 2.682830
  H -0.048307 -1.014744 2.383311
  H -1.361379 -2.112709 2.817269
  H -3.562343 -0.110639 -0.250265
  H -4.677523 -0.761095 0.984911
  H -4.538720 -1.582473 -0.553286
  O 3.280077 -0.262762 0.130149
  H 3.594952 0.336362 0.821343
  H 1.459845 0.064286 -0.045049
 19
 113.239503
  C -1.283362 -0.227883 -0.029320
  C -1.466035 -1.376483 0.777148
  C -1.180937 -1.199220 2.256713
  C -3.048956 -1.949716 0.765497
  C -4.061502 -1.050688 0.201324
  O -3.188863 -3.011636 1.246957
  H 0.897608 0.060199 -0.035563
  H -1.528200 0.749397 0.371774
  H -1.414249 -0.303167 -1.101528
  H -0.969596 -2.265518 0.358445
  H -1.740796 -0.376702 2.672400
  H -0.118644 -0.996645 2.393477
  H -1.419553 -2.096049 2.807710
  H -3.676386 -0.136862 -0.232018
  H -4.768606 -0.815229 1.004351
  H -4.634640 -1.619604 -0.534927
  O 3.656052 -0.226248 0.103999
  H 3.975506 0.345378 0.801131
  H 1.595564 0.149153 -0.069337
 19
 116.444403
  C -1.402352 -0.220221 -0.046078
  C -1.531488 -1.350772 0.758966
  C -1.248721 -1.176079 2.241066
  C -3.122518 -1.974329 0.756033
  C -4.151220 -1.079484 0.236262
  O -3.223930 -3.036482 1.238713
  H 1.019893 0.100895 -0.046197
  H -1.606260 0.763250 0.356030
  H -1.478461 -0.302695 -1.116566
  H -1.025138 -2.234859 0.330886
  H -1.817293 -0.361060 2.668835
  H -0.190610 -0.963215 2.375201
  H -1.471309 -2.091106 2.790317
  H -3.787928 -0.154139 -0.189661
  H -4.838027 -0.868149 1.058155
  H -4.734294 -1.639613 -0.495854
  O 4.028649 -0.219126 0.136934
  H 4.353963 0.381366 0.809479
  H 1.718612 0.207095 -0.084738
 19
 117.425098
  C -1.515510 -0.200129 -0.041882
  C -1.613354 -1.335109 0.766838
  C -1.346281 -1.169927 2.247795
  C -3.206520 -1.996812 0.763851
  C -4.248439 -1.108729 0.257429
  O -3.271470 -3.071473 1.213495
  H 1.175237 0.143820 -0.067544
  H -1.697836 0.793832 0.356322
  H -1.542905 -0.281772 -1.113903
  H -1.105064 -2.208734 0.332341
  H -1.922048 -0.351404 2.666324
  H -0.292908 -0.939819 2.393951
  H -1.577489 -2.077858 2.794596
  H -3.902386 -0.166633 -0.147784
  H -4.941878 -0.926372 1.084354
  H -4.817242 -1.661837 -0.489327
  O 4.452466 -0.199652 0.128972
  H 4.784437 0.436585 0.765504
  H 1.882079 0.281221 -0.114387
