 29
 0.000000
  C 0.967587 0.141027 0.404036
  C 2.443508 0.138589 0.396680
  C 3.233315 0.606889 1.560836
  C 2.460444 1.097119 2.780895
  H 3.137885 1.410929 3.561006
  C 3.056402 -0.326589 -0.761066
  C 4.433768 -0.411762 -0.973822
  C 5.114680 -0.862348 -2.097327
  C 4.623023 -1.385182 -3.401468
  C 3.133200 -1.504093 -3.699412
  C 2.914827 -2.066176 -5.101470
  O 6.436919 -0.856368 -2.082273
  H 0.536829 0.511902 1.326800
  H 0.594922 -0.870545 0.238211
  H 0.594254 0.756010 -0.415772
  H 3.889289 1.417579 1.224597
  H 3.889852 -0.210543 1.879161
  H 1.824868 0.303446 3.172198
  H 1.824381 1.940474 2.514126
  H 2.397326 -0.644068 -1.550819
  H 5.051427 -0.079921 -0.147450
  H 5.080570 -2.373214 -3.526221
  H 5.081204 -0.757429 -4.174236
  H 2.657017 -0.524202 -3.647368
  H 2.656382 -2.176277 -2.984953
  H 3.355339 -1.418324 -5.855808
  H 1.850809 -2.148810 -5.308605
  H 3.354735 -3.056001 -5.199181
  H 6.809577 -0.521403 -1.245229
 29
 9.096271
  C 0.951345 0.150995 0.428837
  C 2.428178 0.151748 0.429725
  C 3.212022 0.622240 1.599213
  C 2.428774 1.110003 2.812771
  H 3.108342 1.425422 3.596885
  C 3.051157 -0.312750 -0.726052
  C 4.418675 -0.391000 -0.921596
  C 5.174359 -0.893868 -2.175786
  C 4.658865 -1.409828 -3.462894
  C 3.160878 -1.513998 -3.724015
  C 2.906926 -2.074031 -5.121209
  O 6.481240 -0.882948 -2.148895
  H 0.517053 0.521271 1.349789
  H 0.581689 -0.860912 0.258450
  H 0.581160 0.762986 -0.394614
  H 3.868630 1.433898 1.266749
  H 3.869087 -0.193290 1.921082
  H 1.795286 0.317538 3.205812
  H 1.794939 1.953745 2.547959
  H 2.398804 -0.632729 -1.522007
  H 5.044372 -0.063250 -0.105488
  H 5.107670 -2.401186 -3.596508
  H 5.108255 -0.785727 -4.244318
  H 2.696287 -0.529718 -3.659780
  H 2.695687 -2.181047 -2.997767
  H 3.337017 -1.430048 -5.884667
  H 1.838393 -2.147789 -5.306185
  H 3.336459 -3.067318 -5.228310
  H 6.855937 -0.547637 -1.311022
 29
 27.432480
  C 0.944712 0.155019 0.435903
  C 2.417363 0.158390 0.444789
  C 3.194993 0.627984 1.614618
  C 2.400262 1.112177 2.820682
  H 3.089401 1.428364 3.608650
  C 3.048602 -0.301437 -0.700357
  C 4.405212 -0.367147 -0.863749
  C 5.232306 -0.923235 -2.250249
  C 4.679989 -1.428121 -3.508456
  C 3.178472 -1.516469 -3.728400
  C 2.892389 -2.074060 -5.119253
  O 6.507718 -0.889421 -2.167182
  H 0.510452 0.524685 1.356223
  H 0.577948 -0.855875 0.256936
  H 0.578176 0.761541 -0.392485
  H 3.850921 1.441620 1.290167
  H 3.850805 -0.184175 1.942889
  H 1.772099 0.322505 3.221846
  H 1.772416 1.960156 2.564538
  H 2.406709 -0.621065 -1.496550
  H 5.079447 -0.055206 -0.086440
  H 5.117660 -2.422191 -3.660029
  H 5.117562 -0.814434 -4.305231
  H 2.729533 -0.526426 -3.653280
  H 2.729474 -2.180474 -2.990023
  H 3.313209 -1.433457 -5.890369
  H 1.820840 -2.140692 -5.285559
  H 3.313145 -3.069931 -5.234362
  H 6.868312 -0.554217 -1.330200
 29
 48.567126
  C 0.909186 0.173721 0.482527
  C 2.392398 0.178986 0.496369
  C 3.171344 0.652766 1.676506
  C 2.372802 1.137118 2.882667
  H 3.057965 1.452368 3.668250
  C 3.038128 -0.286383 -0.662398
  C 4.383747 -0.348816 -0.817582
  C 5.283059 -0.957679 -2.336062
  C 4.718659 -1.457775 -3.582357
  C 3.208993 -1.537137 -3.779748
  C 2.896751 -2.093249 -5.167147
  O 6.566242 -0.921414 -2.247216
  H 0.472606 0.543148 1.402100
  H 0.542633 -0.838585 0.302537
  H 0.542975 0.780559 -0.347651
  H 3.828398 1.467816 1.352538
  H 3.828248 -0.160072 2.006219
  H 1.744525 0.346770 3.284686
  H 1.744839 1.986274 2.626539
  H 2.394360 -0.610290 -1.469427
  H 5.073428 -0.043584 -0.056735
  H 5.151735 -2.455438 -3.738891
  H 5.151497 -0.844858 -4.385144
  H 2.767663 -0.544160 -3.696497
  H 2.767805 -2.197669 -3.033638
  H 3.309260 -1.455057 -5.945244
  H 1.822048 -2.153200 -5.316690
  H 3.309272 -3.092180 -5.289139
  H 6.935501 -0.582876 -1.401914
 29
 69.394660
  C 0.903513 0.183405 0.505541
  C 2.376625 0.192019 0.528180
  C 3.146177 0.663373 1.703315
  C 2.340559 1.144592 2.902372
  H 3.021985 1.460766 3.690989
  C 3.023129 -0.265502 -0.611524
  C 4.372009 -0.322453 -0.752682
  C 5.338605 -0.985328 -2.405523
  C 4.749443 -1.481459 -3.641454
  C 3.237176 -1.546503 -3.802518
  C 2.886623 -2.099069 -5.180771
  O 6.602459 -0.942568 -2.300535
  H 0.465236 0.552111 1.423856
  H 0.540020 -0.828532 0.323907
  H 0.540604 0.789333 -0.325275
  H 3.802530 1.478419 1.381715
  H 3.802215 -0.148077 2.034387
  H 1.711954 0.353122 3.302194
  H 1.712463 1.993212 2.644300
  H 2.388739 -0.587623 -1.414607
  H 5.090523 -0.025780 -0.012805
  H 5.172110 -2.482482 -3.806839
  H 5.171621 -0.872272 -4.453110
  H 2.808704 -0.549540 -3.707376
  H 2.809116 -2.201793 -3.044827
  H 3.286198 -1.464801 -5.968430
  H 1.808387 -2.148993 -5.304840
  H 3.286441 -3.101633 -5.312369
  H 6.965464 -0.607496 -1.463932
 29
 87.128237
  C 0.899512 0.166595 0.462455
  C 2.378455 0.194051 0.532605
  C 3.117940 0.674894 1.732428
  C 2.273330 1.146745 2.908931
  H 2.927448 1.467881 3.710654
  C 3.074122 -0.259660 -0.598070
  C 4.407682 -0.300150 -0.697789
  C 5.429543 -1.019369 -2.490896
  C 4.790465 -1.502642 -3.694584
  C 3.265585 -1.529971 -3.760719
  C 2.812340 -2.072538 -5.113598
  O 6.686361 -0.972074 -2.374656
  H 0.432513 0.530298 1.368969
  H 0.551107 -0.849915 0.272175
  H 0.551885 0.770382 -0.377472
  H 3.773019 1.498685 1.426670
  H 3.772598 -0.132211 2.080593
  H 1.645222 0.346664 3.295499
  H 1.645773 1.992771 2.635764
  H 2.462796 -0.591133 -1.425261
  H 5.170909 -0.023268 -0.006501
  H 5.186170 -2.512134 -3.886160
  H 5.185381 -0.905421 -4.531052
  H 2.871835 -0.521660 -3.637248
  H 2.872791 -2.173934 -2.974713
  H 3.176168 -1.447911 -5.926397
  H 1.727099 -2.094850 -5.168120
  H 3.176887 -3.085376 -5.270136
  H 7.059327 -0.634895 -1.532542
 29
 102.309589
  C 0.876725 0.177941 0.491758
  C 2.355951 0.210633 0.574903
  C 3.088394 0.693918 1.779627
  C 2.234687 1.164345 2.951447
  H 2.887793 1.490189 3.764040
  C 3.064812 -0.241162 -0.550219
  C 4.396682 -0.276934 -0.638295
  C 5.478248 -1.051068 -2.569495
  C 4.820992 -1.530403 -3.764053
  C 3.297808 -1.543687 -3.795092
  C 2.806001 -2.080984 -5.135466
  O 6.734485 -1.003634 -2.453043
  H 0.403127 0.540840 1.395467
  H 0.532023 -0.839660 0.300209
  H 0.532805 0.781151 -0.350184
  H 3.743484 1.518374 1.477198
  H 3.743138 -0.111086 2.131165
  H 1.606817 0.364128 3.333101
  H 1.607409 2.006781 2.674079
  H 2.462851 -0.573430 -1.379325
  H 5.182040 -0.009301 0.029971
  H 5.204673 -2.542160 -3.961688
  H 5.203860 -0.935334 -4.606218
  H 2.918374 -0.532047 -3.660023
  H 2.919341 -2.182450 -2.998562
  H 3.155521 -1.459898 -5.956806
  H 1.720009 -2.092570 -5.163093
  H 3.156287 -3.097034 -5.301000
  H 7.111425 -0.668033 -1.614210
 29
 114.632798
  C 0.861162 0.193488 0.531827
  C 2.335328 0.231748 0.628647
  C 3.055077 0.716514 1.835650
  C 2.189953 1.184015 2.998927
  H 2.830232 1.510332 3.811691
  C 3.060801 -0.219738 -0.494835
  C 4.387208 -0.252502 -0.575563
  C 5.524338 -1.082280 -2.646718
  C 4.853564 -1.560110 -3.838278
  C 3.327419 -1.560635 -3.837745
  C 2.799702 -2.093129 -5.166788
  O 6.780165 -1.039387 -2.541843
  H 0.378984 0.555213 1.431724
  H 0.521811 -0.825242 0.338382
  H 0.522546 0.795605 -0.312667
  H 3.710177 1.542437 1.537630
  H 3.709920 -0.086149 2.191957
  H 1.561008 0.380667 3.375572
  H 1.561494 2.025061 2.715099
  H 2.464288 -0.554997 -1.331050
  H 5.190166 0.007905 0.074771
  H 5.227354 -2.575261 -4.041290
  H 5.226627 -0.966002 -4.686416
  H 2.960630 -0.545078 -3.692132
  H 2.961509 -2.195133 -3.031190
  H 3.136135 -1.474915 -5.996233
  H 1.712795 -2.094688 -5.169570
  H 3.136788 -3.112732 -5.340459
  H 7.164533 -0.704211 -1.703697
 29
 122.470311
  C 0.845788 0.211467 0.578431
  C 2.311098 0.255429 0.688179
  C 3.014939 0.741522 1.896986
  C 2.139019 1.206967 3.055060
  H 2.773748 1.536678 3.875159
  C 3.052501 -0.196026 -0.434968
  C 4.376090 -0.228687 -0.515825
  C 5.566223 -1.115107 -2.727743
  C 4.886075 -1.593049 -3.920070
  C 3.362237 -1.579684 -3.886307
  C 2.797253 -2.106396 -5.201074
  O 6.834584 -1.082503 -2.648014
  H 0.351029 0.571232 1.473146
  H 0.514541 -0.808903 0.380706
  H 0.514717 0.811130 -0.270521
  H 3.670095 1.568092 1.602977
  H 3.670416 -0.058272 2.256869
  H 1.510214 0.401697 3.426680
  H 1.510181 2.045369 2.766022
  H 2.462265 -0.533564 -1.276138
  H 5.182370 0.030587 0.131638
  H 5.248454 -2.610416 -4.126926
  H 5.248335 -1.000304 -4.772496
  H 3.009879 -0.561166 -3.730048
  H 3.010059 -2.208631 -3.069987
  H 3.119989 -1.491731 -6.038414
  H 1.710788 -2.096957 -5.177477
  H 3.119987 -3.129144 -5.382561
  H 7.225826 -0.749488 -1.814663
 29
 127.345126
  C 0.822134 0.231968 0.632227
  C 2.283671 0.280799 0.752074
  C 2.975450 0.768751 1.963275
  C 2.093813 1.232652 3.117596
  H 2.722643 1.563189 3.938077
  C 3.036535 -0.170174 -0.369614
  C 4.363501 -0.204038 -0.454142
  C 5.607091 -1.147105 -2.806394
  C 4.920923 -1.626334 -4.002630
  C 3.396499 -1.601344 -3.941801
  C 2.799330 -2.123266 -5.244960
  O 6.881957 -1.127502 -2.757975
  H 0.315242 0.589645 1.521421
  H 0.498386 -0.790365 0.429422
  H 0.497664 0.828539 -0.222094
  H 3.631511 1.595665 1.671406
  H 3.632758 -0.028907 2.325227
  H 1.465512 0.425930 3.486846
  H 1.464507 2.069707 2.825496
  H 2.450044 -0.510157 -1.215733
  H 5.167320 0.057120 0.197709
  H 5.274078 -2.646265 -4.211826
  H 5.274774 -1.033813 -4.858468
  H 3.056224 -0.579366 -3.776483
  H 3.055541 -2.226073 -3.116600
  H 3.110741 -1.511392 -6.089072
  H 1.713279 -2.104386 -5.199221
  H 3.109883 -3.148977 -5.432876
  H 7.282482 -0.795800 -1.926646
 29
 130.473691
  C 0.801480 0.253019 0.687484
  C 2.257353 0.305606 0.814675
  C 2.937676 0.795010 2.027003
  C 2.050679 1.257710 3.178218
  H 2.676562 1.590300 4.001931
  C 3.016832 -0.143570 -0.302095
  C 4.340719 -0.178344 -0.389549
  C 5.641246 -1.177307 -2.880471
  C 4.949972 -1.657878 -4.080944
  C 3.427248 -1.623340 -3.998112
  C 2.804038 -2.140505 -5.290006
  O 6.928289 -1.170303 -2.862340
  H 0.284529 0.608916 1.571740
  H 0.484584 -0.770453 0.479745
  H 0.482992 0.845880 -0.171629
  H 3.594736 1.621675 1.736834
  H 3.596933 -0.000316 2.390403
  H 1.422735 0.449696 3.545480
  H 1.420814 2.093412 2.883350
  H 2.434999 -0.485168 -1.151089
  H 5.138091 0.086139 0.270395
  H 5.294999 -2.679329 -4.291453
  H 5.296463 -1.065484 -4.938722
  H 3.097665 -0.599485 -3.825395
  H 3.096166 -2.244033 -3.166354
  H 3.106082 -1.531049 -6.139104
  H 1.719258 -2.113788 -5.226023
  H 3.104453 -3.168197 -5.482964
  H 7.338195 -0.840882 -2.035520
 29
 132.485537
  C 0.771414 0.277302 0.751356
  C 2.225233 0.332565 0.882718
  C 2.897752 0.823767 2.096519
  C 2.007997 1.285632 3.245592
  H 2.631353 1.619237 4.069564
  C 2.992249 -0.117393 -0.235471
  C 4.325688 -0.153766 -0.327809
  C 5.679467 -1.209382 -2.958919
  C 4.982445 -1.689887 -4.160335
  C 3.460396 -1.646378 -4.057253
  C 2.813037 -2.159260 -5.339343
  O 6.964567 -1.215563 -2.972188
  H 0.247052 0.631950 1.631938
  H 0.459454 -0.747411 0.539165
  H 0.456790 0.866624 -0.112355
  H 3.556108 1.650052 1.807021
  H 3.559481 0.030372 2.460598
  H 1.380829 0.477092 3.612161
  H 1.377699 2.120190 2.949335
  H 2.412279 -0.460852 -1.087585
  H 5.117724 0.113706 0.339084
  H 5.320036 -2.713180 -4.372190
  H 5.322375 -1.097414 -5.020236
  H 3.140602 -0.619995 -3.877828
  H 3.138172 -2.263963 -3.219049
  H 3.106631 -1.551797 -6.193147
  H 1.729354 -2.125292 -5.258774
  H 3.104111 -3.189041 -5.536897
  H 7.385775 -0.888707 -2.150329
 29
 133.835252
  C 0.751436 0.299914 0.809206
  C 2.200934 0.357283 0.945248
  C 2.865675 0.849219 2.158896
  C 1.972763 1.310471 3.305369
  H 2.594089 1.645263 4.130921
  C 2.967512 -0.089103 -0.162939
  C 4.288132 -0.125365 -0.255243
  C 5.704807 -1.235260 -3.022466
  C 5.002933 -1.717673 -4.229703
  C 3.481504 -1.669564 -4.115772
  C 2.820301 -2.179440 -5.391377
  O 7.003886 -1.250166 -3.057382
  H 0.220740 0.653481 1.686020
  H 0.443925 -0.725203 0.592788
  H 0.441072 0.885687 -0.058394
  H 3.525516 1.674634 1.870247
  H 3.529215 0.057628 2.523602
  H 1.345553 0.501249 3.671017
  H 1.342136 2.144382 3.007302
  H 2.392334 -0.432966 -1.015471
  H 5.073647 0.145643 0.420186
  H 5.336198 -2.741790 -4.441850
  H 5.338812 -1.124586 -5.090162
  H 3.167636 -0.642407 -3.932067
  H 3.164885 -2.285007 -3.274173
  H 3.109006 -1.573064 -6.247446
  H 1.737671 -2.141455 -5.301263
  H 3.106190 -3.210004 -5.591637
  H 7.432872 -0.924315 -2.238165
 29
 134.825315
  C 0.712354 0.329064 0.882244
  C 2.162233 0.386874 1.020212
  C 2.822900 0.880406 2.236174
  C 1.928104 1.341845 3.380834
  H 2.548355 1.677361 4.207212
  C 2.939469 -0.064376 -0.098185
  C 4.283185 -0.102982 -0.195959
  C 5.744269 -1.269622 -3.107643
  C 5.034900 -1.748815 -4.308052
  C 3.515783 -1.693213 -4.174830
  C 2.834015 -2.198866 -5.441169
  O 7.026567 -1.294862 -3.169419
  H 0.177851 0.682506 1.757012
  H 0.406672 -0.696502 0.662373
  H 0.404279 0.911988 0.011166
  H 3.484717 1.704933 1.948072
  H 3.488136 0.090016 2.601591
  H 1.300919 0.533048 3.746173
  H 1.297857 2.175158 3.081820
  H 2.362995 -0.409778 -0.954454
  H 5.068372 0.167944 0.479640
  H 5.361525 -2.774136 -4.522386
  H 5.363941 -1.155641 -5.170499
  H 3.210397 -0.664170 -3.985199
  H 3.207851 -2.306658 -3.328124
  H 3.114762 -1.593648 -6.300959
  H 1.752870 -2.155144 -5.336343
  H 3.112133 -3.230945 -5.645719
  H 7.465769 -0.971857 -2.358387
