 22
 0.000000
  C 0.988268 0.186422 0.516966
  C 2.437608 0.124166 0.360682
  H 3.074850 0.449975 1.171008
  C 2.994450 -0.344709 -0.807088
  C 4.380003 -0.423781 -1.004826
  C 5.063780 -0.868766 -2.113916
  C 4.617767 -1.387103 -3.406188
  C 3.142950 -1.523623 -3.748166
  C 2.967306 -2.088234 -5.155951
  H 6.144262 -0.837663 -2.036067
  H 0.686127 0.573422 1.480383
  H 0.552136 -0.805352 0.374534
  H 0.551420 0.803601 -0.271922
  H 2.293978 -0.649477 -1.565452
  H 4.988442 -0.089801 -0.172858
  H 5.106088 -2.365376 -3.529330
  H 5.106954 -0.765794 -4.171193
  H 2.656046 -0.548084 -3.705227
  H 2.655264 -2.198720 -3.043105
  H 3.420926 -1.436751 -5.899268
  H 1.911412 -2.183835 -5.395578
  H 3.420231 -3.073175 -5.242891
 22
 -0.205575
  C 0.975224 0.189012 0.552340
  C 2.417223 0.165432 0.329409
  H 3.057309 0.593645 1.078380
  C 2.970528 -0.376352 -0.807665
  C 4.359315 -0.485419 -0.987924
  C 5.053104 -0.927935 -2.097107
  C 4.617376 -1.400423 -3.410467
  C 3.147264 -1.517804 -3.773719
  C 2.984647 -2.037915 -5.199317
  H 6.132105 -0.915171 -2.000311
  H 0.699198 0.892366 1.325012
  H 0.653034 -0.802943 0.872681
  H 0.432833 0.385716 -0.366983
  H 2.282213 -0.707798 -1.566394
  H 4.961735 -0.169808 -0.146017
  H 5.107660 -2.371064 -3.568276
  H 5.120011 -0.760471 -4.149234
  H 2.666602 -0.543113 -3.705104
  H 2.649643 -2.209551 -3.096028
  H 3.440747 -1.363019 -5.915902
  H 1.933599 -2.130419 -5.450576
  H 3.441322 -3.014976 -5.313558
 22
 1.616183
  C 0.980768 0.119267 0.555836
  C 2.394588 0.270443 0.237157
  H 2.980250 0.957073 0.835602
  C 2.992945 -0.421525 -0.789466
  C 4.378147 -0.559350 -0.961418
  C 5.066221 -1.005351 -2.065769
  C 4.626409 -1.424128 -3.395023
  C 3.154007 -1.465709 -3.770749
  C 2.979506 -1.938392 -5.211860
  H 6.144416 -1.029632 -1.956859
  H 0.562651 1.032336 0.965060
  H 0.887410 -0.649538 1.330287
  H 0.395736 -0.227040 -0.293741
  H 2.295009 -0.807215 -1.517024
  H 4.979325 -0.291893 -0.100162
  H 5.072901 -2.414158 -3.572398
  H 5.163349 -0.788416 -4.115172
  H 2.716220 -0.470952 -3.674155
  H 2.620811 -2.157786 -3.116662
  H 3.477490 -1.266464 -5.907148
  H 1.925457 -1.970738 -5.475030
  H 3.389591 -2.936330 -5.348753
 22
 5.820251
  C 1.009073 0.007869 0.665211
  C 2.332323 0.349856 0.161314
  H 2.858260 1.163230 0.649170
  C 2.958632 -0.379812 -0.828887
  C 4.343064 -0.558129 -0.967027
  C 5.040449 -1.055110 -2.043605
  C 4.623668 -1.463474 -3.386170
  C 3.163178 -1.416039 -3.812653
  C 3.013193 -1.879810 -5.259805
  H 6.110396 -1.135080 -1.898029
  H 0.401396 0.889859 0.856350
  H 1.149665 -0.475211 1.636419
  H 0.480876 -0.688995 0.022390
  H 2.285139 -0.650857 -1.630456
  H 4.925968 -0.338417 -0.079260
  H 5.008640 -2.483114 -3.535491
  H 5.221624 -0.867090 -4.090915
  H 2.785010 -0.395588 -3.735913
  H 2.566975 -2.075374 -3.179400
  H 3.581916 -1.244044 -5.934171
  H 1.970376 -1.842603 -5.564058
  H 3.361652 -2.902887 -5.380563
 22
 15.643431
  C 1.028717 -0.098567 0.641477
  C 2.284325 0.372772 0.068313
  H 2.614513 1.373577 0.327407
  C 3.031656 -0.426607 -0.780235
  C 4.397038 -0.638617 -0.931040
  C 5.079802 -1.101837 -2.027573
  C 4.640083 -1.446699 -3.384407
  C 3.168384 -1.357813 -3.768122
  C 2.966840 -1.790577 -5.218858
  H 6.146764 -1.226795 -1.888721
  H 0.286191 0.691608 0.675692
  H 1.238928 -0.400856 1.670927
  H 0.629307 -0.964878 0.119019
  H 2.323368 -0.604540 -1.592003
  H 4.981766 -0.482053 -0.031871
  H 4.998916 -2.466188 -3.580083
  H 5.228031 -0.824489 -4.072865
  H 2.819948 -0.328866 -3.665238
  H 2.577376 -2.016757 -3.130257
  H 3.522009 -1.147106 -5.897709
  H 1.915440 -1.737267 -5.489413
  H 3.301776 -2.814378 -5.370185
 22
 30.846978
  C 1.033095 -0.146123 0.578167
  C 2.201388 0.397915 -0.109149
  H 2.349587 1.475773 -0.056547
  C 3.131537 -0.413359 -0.734014
  C 4.464164 -0.684641 -0.909338
  C 5.129470 -1.173479 -2.007913
  C 4.651935 -1.485694 -3.366963
  C 3.174156 -1.316250 -3.700153
  C 2.897066 -1.719584 -5.146874
  H 6.188822 -1.346697 -1.876278
  H 0.176755 0.507213 0.466570
  H 1.288445 -0.199855 1.639226
  H 0.780954 -1.151440 0.249128
  H 2.350270 -0.482310 -1.542449
  H 5.053922 -0.553551 -0.007736
  H 4.948023 -2.520982 -3.578788
  H 5.247915 -0.883933 -4.065614
  H 2.886707 -0.270135 -3.577443
  H 2.573998 -1.952661 -3.048081
  H 3.461102 -1.097420 -5.838329
  H 1.840748 -1.609040 -5.378697
  H 3.173574 -2.757052 -5.320585
 22
 38.831852
  C 1.032203 -0.302211 0.509207
  C 2.158356 0.298748 -0.243077
  H 2.142741 1.388202 -0.314295
  C 3.254568 -0.382833 -0.688813
  C 4.546639 -0.706623 -0.894192
  C 5.200030 -1.207855 -2.000646
  C 4.684081 -1.481600 -3.359178
  C 3.204813 -1.237513 -3.636628
  C 2.852388 -1.600367 -5.077162
  H 6.250461 -1.422884 -1.878788
  H 0.099061 0.221469 0.322756
  H 1.267297 -0.184802 1.568106
  H 0.915665 -1.364447 0.313976
  H 2.346033 -0.306002 -1.495055
  H 5.138116 -0.606082 0.011545
  H 4.924935 -2.526010 -3.595750
  H 5.283083 -0.893870 -4.066174
  H 2.974171 -0.180216 -3.487699
  H 2.600403 -1.857755 -2.971447
  H 3.418790 -0.993012 -5.779677
  H 1.794292 -1.436014 -5.265486
  H 3.072645 -2.646750 -5.278644
 22
 36.838680
  C 1.060023 -0.387017 0.505336
  C 2.117539 0.277058 -0.346925
  H 2.041487 1.366106 -0.382442
  C 3.297151 -0.316751 -0.695108
  C 4.547412 -0.693000 -0.919970
  C 5.221863 -1.230133 -1.999775
  C 4.707849 -1.499508 -3.357273
  C 3.236252 -1.205580 -3.623065
  C 2.858343 -1.554781 -5.059766
  H 6.263136 -1.470892 -1.852751
  H 0.090458 0.086636 0.382906
  H 1.344416 -0.273244 1.550578
  H 0.978392 -1.450393 0.303464
  H 2.040959 -0.120265 -1.458158
  H 5.120485 -0.584900 0.003336
  H 4.916259 -2.551604 -3.590355
  H 5.324652 -0.933281 -4.067319
  H 3.044697 -0.142668 -3.465402
  H 2.619497 -1.803329 -2.948975
  H 3.436845 -0.964916 -5.767276
  H 1.804279 -1.356268 -5.237786
  H 3.042672 -2.606975 -5.264763
 22
 35.951044
  C 1.108793 -0.367847 0.551783
  C 2.070768 0.249316 -0.474423
  H 1.964805 1.330655 -0.573568
  C 3.280717 -0.329908 -0.738431
  C 4.520629 -0.722999 -0.932637
  C 5.227273 -1.257475 -1.995564
  C 4.728308 -1.505387 -3.361083
  C 3.258639 -1.198149 -3.619876
  C 2.878100 -1.503900 -5.065589
  H 6.268343 -1.487614 -1.831685
  H 0.162258 0.156060 0.543577
  H 1.536203 -0.278825 1.550034
  H 0.935337 -1.425496 0.377953
  H 1.680004 -0.245117 -1.393152
  H 5.067501 -0.640654 0.012010
  H 4.934613 -2.553090 -3.614611
  H 5.350031 -0.924616 -4.053988
  H 3.069793 -0.142185 -3.422756
  H 2.644114 -1.814797 -2.960578
  H 3.464345 -0.901518 -5.755743
  H 1.826688 -1.287424 -5.239511
  H 3.050483 -2.551387 -5.298910
 22
 19.338471
  C 1.367540 -0.863861 0.176062
  C 1.832292 0.138389 -0.893495
  H 1.921141 1.135808 -0.437428
  C 3.122572 -0.197039 -1.469916
  C 4.369257 -0.540353 -1.061935
  C 5.262922 -1.201705 -1.874831
  C 4.784113 -1.629354 -3.203054
  C 3.615640 -0.798525 -3.620611
  C 2.683126 -1.363041 -4.646680
  H 6.220003 -1.523348 -1.512613
  H 0.443941 -0.501568 0.609775
  H 2.109411 -0.960571 0.957595
  H 1.179701 -1.845591 -0.253014
  H 1.068743 0.216759 -1.671374
  H 4.662373 -0.241243 -0.069839
  H 4.514529 -2.689361 -3.133548
  H 5.570694 -1.555599 -3.954438
  H 3.932034 0.212760 -3.861287
  H 2.982966 -0.686406 -2.603314
  H 3.234085 -1.452575 -5.581101
  H 1.835115 -0.707654 -4.822819
  H 2.315584 -2.348438 -4.368898
