 26
 0.000000
  H 1.461984 0.167373 0.470469
  C 2.540544 0.148357 0.422216
  C 3.303481 0.617079 1.586818
  C 2.455147 1.089944 2.763136
  C 3.332226 1.555995 3.921072
  C 3.096837 -0.323309 -0.751516
  C 4.471237 -0.420468 -0.994159
  C 5.130004 -0.878115 -2.136209
  C 4.600362 -1.394399 -3.425137
  C 3.104841 -1.496188 -3.680683
  H 2.942907 -1.895003 -4.676295
  O 6.445480 -0.881911 -2.145739
  H 3.964206 1.435443 1.276250
  H 3.964830 -0.187959 1.929239
  H 1.812724 0.278386 3.109565
  H 1.812186 1.915009 2.451293
  H 3.967236 0.748623 4.278794
  H 2.715181 1.889785 4.751528
  H 3.966639 2.386564 3.619942
  H 2.410020 -0.632235 -1.520186
  H 5.116715 -0.096073 -0.185877
  H 5.051355 -2.384199 -3.560584
  H 5.052100 -0.772419 -4.206555
  H 2.630555 -0.519248 -3.631415
  H 2.629869 -2.168533 -2.970666
  H 6.858262 -0.553379 -1.323820
 26
 12.488524
  H 1.413038 0.183960 0.511753
  C 2.491214 0.154456 0.437527
  C 3.275446 0.617824 1.588768
  C 2.444733 1.094787 2.775071
  C 3.336189 1.556997 3.923504
  C 3.008050 -0.317273 -0.736242
  C 4.505390 -0.430234 -1.018295
  C 5.127464 -0.884497 -2.152049
  C 4.604118 -1.396097 -3.429403
  C 3.109753 -1.494290 -3.675992
  H 2.945404 -1.893413 -4.672540
  O 6.574367 -0.891836 -2.170694
  H 3.937944 1.431077 1.268781
  H 3.938490 -0.190080 1.920898
  H 1.801875 0.286134 3.127830
  H 1.801428 1.922186 2.469748
  H 3.971416 0.746970 4.274359
  H 2.730041 1.893555 4.760714
  H 3.970923 2.384682 3.615568
  H 2.314843 -0.622678 -1.496222
  H 5.155003 -0.108710 -0.216990
  H 5.056410 -2.386170 -3.566936
  H 5.057142 -0.775314 -4.212444
  H 2.636863 -0.517102 -3.626345
  H 2.636175 -2.166641 -2.965610
  H 6.976981 -0.564424 -1.351861
 26
 38.110685
  H 1.382784 0.203723 0.561478
  C 2.457452 0.161135 0.453042
  C 3.257823 0.615645 1.581802
  C 2.447499 1.095364 2.777381
  C 3.347004 1.554805 3.918939
  C 2.916891 -0.306703 -0.711635
  C 4.520124 -0.428869 -1.017839
  C 5.087677 -0.886141 -2.157795
  C 4.609925 -1.399508 -3.437504
  C 3.114151 -1.499136 -3.688078
  H 2.951540 -1.899765 -4.685969
  O 6.686049 -0.893570 -2.174104
  H 3.923822 1.423207 1.253855
  H 3.925196 -0.193209 1.903394
  H 1.802170 0.290802 3.136400
  H 1.800749 1.923723 2.480322
  H 3.983215 0.743422 4.265761
  H 2.747983 1.892357 4.760496
  H 3.981707 2.381516 3.607573
  H 2.239243 -0.616208 -1.480457
  H 5.150890 -0.104254 -0.210056
  H 5.072559 -2.383987 -3.573099
  H 5.073836 -0.782875 -4.216106
  H 2.641014 -0.522645 -3.634530
  H 2.639946 -2.166938 -2.974390
  H 7.037126 -0.561768 -1.340839
 26
 67.134104
  H 1.330069 0.217124 0.597803
  C 2.406746 0.165695 0.465855
  C 3.238337 0.623144 1.601001
  C 2.451088 1.106340 2.805435
  C 3.363087 1.562258 3.936615
  C 2.829765 -0.304709 -0.705449
  C 4.521759 -0.435226 -1.034490
  C 5.029582 -0.891924 -2.171618
  C 4.610845 -1.405465 -3.451865
  C 3.126159 -1.513545 -3.726047
  H 2.985942 -1.913778 -4.722973
  O 6.796503 -0.898546 -2.184406
  H 3.907965 1.424440 1.262760
  H 3.910350 -0.187917 1.910733
  H 1.804465 0.304267 3.171442
  H 1.802454 1.937255 2.515035
  H 4.000286 0.750073 4.277485
  H 2.773999 1.902342 4.784514
  H 3.998257 2.385887 3.619811
  H 2.176270 -0.619044 -1.484644
  H 5.135422 -0.106120 -0.217543
  H 5.091074 -2.389483 -3.577118
  H 5.093493 -0.782802 -4.222668
  H 2.647155 -0.537458 -3.682186
  H 2.644889 -2.187125 -3.019640
  H 7.097385 -0.559317 -1.333826
 26
 95.102501
  H 1.306173 0.229393 0.622270
  C 2.382461 0.172578 0.481341
  C 3.220673 0.623693 1.603330
  C 2.445000 1.111727 2.817043
  C 3.361594 1.565288 3.944827
  C 2.790236 -0.302912 -0.701670
  C 4.524748 -0.440674 -1.043727
  C 4.976431 -0.892490 -2.172944
  C 4.598859 -1.404351 -3.451323
  C 3.108037 -1.518832 -3.735332
  H 2.975282 -1.919421 -4.735852
  O 6.958898 -0.902815 -2.199905
  H 3.891684 1.421846 1.255229
  H 3.891897 -0.193028 1.904318
  H 1.795370 0.313565 3.187112
  H 1.795542 1.944019 2.531502
  H 3.999391 0.752080 4.284186
  H 2.776705 1.907006 4.794615
  H 3.999252 2.387084 3.626573
  H 2.154957 -0.621822 -1.496614
  H 5.128313 -0.112450 -0.224659
  H 5.084834 -2.378929 -3.573497
  H 5.084471 -0.783231 -4.212494
  H 2.627185 -0.546202 -3.690729
  H 2.628245 -2.192625 -3.031825
  H 7.245599 -0.564312 -1.348510
 26
 106.009367
  H 1.355824 0.239181 0.646310
  C 2.429962 0.177244 0.499255
  C 3.253976 0.636947 1.621058
  C 2.477055 1.123430 2.831699
  C 3.375321 1.585694 3.968628
  C 2.833355 -0.310116 -0.687842
  C 4.334080 -0.459221 -1.013891
  C 4.720310 -0.886918 -2.161586
  C 4.532315 -1.391505 -3.461948
  C 3.061804 -1.580415 -3.858718
  H 3.040860 -1.951267 -4.879090
  O 7.192590 -0.864644 -2.091366
  H 3.946057 1.426149 1.283002
  H 3.952533 -0.159416 1.925835
  H 1.814889 0.329657 3.191721
  H 1.806361 1.938576 2.542430
  H 4.018595 0.779458 4.313685
  H 2.778622 1.921267 4.811802
  H 4.009591 2.412538 3.657172
  H 2.183477 -0.605419 -1.478579
  H 4.962296 -0.136188 -0.206581
  H 5.102286 -2.324408 -3.577147
  H 5.034080 -0.715085 -4.171745
  H 2.526146 -0.637251 -3.827106
  H 2.576508 -2.310979 -3.219256
  H 7.400208 -0.575028 -1.203988
 26
 109.723050
  H 1.318713 0.243386 0.685900
  C 2.390508 0.175999 0.521031
  C 3.241960 0.631567 1.622358
  C 2.485790 1.127556 2.839381
  C 3.415610 1.586837 3.955519
  C 2.774685 -0.318489 -0.673453
  C 4.202239 -0.475057 -1.015205
  C 4.577336 -0.898695 -2.157585
  C 4.525315 -1.390540 -3.461095
  C 3.063498 -1.594142 -3.923738
  H 3.096499 -1.964030 -4.942170
  O 7.373997 -0.840050 -2.023319
  H 3.923413 1.421449 1.273914
  H 3.929845 -0.170628 1.927316
  H 1.829028 0.338654 3.220377
  H 1.822549 1.952702 2.560883
  H 4.058287 0.774937 4.290468
  H 2.840775 1.932936 4.809606
  H 4.051712 2.405745 3.625562
  H 2.095371 -0.597185 -1.451085
  H 4.852463 -0.145819 -0.219736
  H 5.094217 -2.323843 -3.528748
  H 5.045136 -0.694087 -4.129802
  H 2.519983 -0.655962 -3.907725
  H 2.562759 -2.330740 -3.302232
  H 7.606588 -0.528224 -1.149687
 26
 109.344209
  H 1.241657 0.268320 0.753359
  C 2.310602 0.188080 0.549136
  C 3.213945 0.634708 1.627502
  C 2.500072 1.140544 2.877184
  C 3.478979 1.590102 3.964484
  C 2.660353 -0.307131 -0.651398
  C 4.054596 -0.480472 -1.041790
  C 4.436726 -0.907927 -2.179157
  C 4.544198 -1.400776 -3.481371
  C 3.109853 -1.629169 -4.017227
  H 3.206135 -2.001834 -5.029242
  O 7.505139 -0.809989 -1.945220
  H 3.886565 1.420220 1.258440
  H 3.898225 -0.174970 1.910860
  H 1.850964 0.359300 3.285921
  H 1.840232 1.977541 2.626167
  H 4.122948 0.769600 4.276754
  H 2.938197 1.942762 4.840175
  H 4.112770 2.402343 3.612480
  H 1.932602 -0.577077 -1.397138
  H 4.741695 -0.162151 -0.275802
  H 5.118819 -2.331095 -3.502505
  H 5.077590 -0.691250 -4.115796
  H 2.553358 -0.698284 -4.027464
  H 2.589466 -2.360832 -3.412652
  H 7.771208 -0.490348 -1.080961
 26
 108.400556
  H 1.168578 0.295037 0.829145
  C 2.230740 0.198170 0.586968
  C 3.177089 0.631836 1.623520
  C 2.524481 1.144714 2.881148
  C 3.546361 1.579781 3.920503
  C 2.541464 -0.303604 -0.621326
  C 3.903561 -0.487208 -1.060705
  C 4.310973 -0.930463 -2.183203
  C 4.562271 -1.391953 -3.467144
  C 3.150656 -1.635706 -4.068084
  H 3.301835 -1.999511 -5.072726
  O 7.645666 -0.784185 -1.849088
  H 3.837168 1.407478 1.228109
  H 3.851177 -0.187109 1.884861
  H 1.883145 0.370565 3.309955
  H 1.871418 1.988272 2.644546
  H 4.188724 0.750586 4.208961
  H 3.047571 1.942902 4.813335
  H 4.176978 2.380119 3.539284
  H 1.782701 -0.580580 -1.329111
  H 4.637979 -0.176128 -0.319340
  H 5.147652 -2.319529 -3.467064
  H 5.109472 -0.653429 -4.064914
  H 2.573752 -0.715322 -4.089069
  H 2.613638 -2.392297 -3.491404
  H 7.958499 -0.461773 -0.998526
 26
 108.116286
  H 1.175070 0.059930 0.935412
  C 2.223724 0.064475 0.641676
  C 3.175011 0.624885 1.618280
  C 2.527087 1.112738 2.905958
  C 3.554032 1.683218 3.884772
  C 2.518649 -0.439789 -0.566421
  C 3.869818 -0.506966 -1.069025
  C 4.287975 -0.941295 -2.192139
  C 4.538401 -1.397195 -3.480776
  C 3.115928 -1.753040 -4.010374
  H 3.248470 -2.123121 -5.015466
  O 7.861743 -0.427012 -2.002764
  H 3.726606 1.455518 1.163793
  H 3.937369 -0.122222 1.867306
  H 1.991025 0.286981 3.388204
  H 1.781552 1.883303 2.678498
  H 4.291294 0.930554 4.162178
  H 3.063899 2.023900 4.794979
  H 4.081202 2.531778 3.449804
  H 1.758257 -0.810909 -1.233501
  H 4.602851 -0.108751 -0.372293
  H 5.179954 -2.282908 -3.492887
  H 4.990902 -0.623406 -4.108320
  H 2.474592 -0.880283 -4.026488
  H 2.661756 -2.529680 -3.406637
  H 8.208077 -0.043254 -1.193215
 26
 108.456598
  H 1.156264 0.059739 0.954246
  C 2.200223 0.039014 0.666976
  C 3.160222 0.605180 1.633924
  C 2.522998 1.126814 2.902503
  C 3.549349 1.688354 3.863058
  C 2.493846 -0.497628 -0.532620
  C 3.846942 -0.533241 -1.070126
  C 4.259244 -0.963458 -2.195605
  C 4.524322 -1.403678 -3.480237
  C 3.099809 -1.806275 -3.980364
  H 3.225842 -2.179404 -4.997633
  O 8.055881 -0.258017 -2.084156
  H 3.725149 1.415806 1.162789
  H 3.907986 -0.148328 1.900444
  H 1.975194 0.324990 3.394249
  H 1.796820 1.900885 2.661524
  H 4.268200 0.929525 4.153866
  H 3.067121 2.053900 4.761093
  H 4.091542 2.514356 3.414560
  H 1.730322 -0.877812 -1.186518
  H 4.586028 -0.085036 -0.404472
  H 5.192141 -2.269585 -3.505534
  H 4.938234 -0.618309 -4.116465
  H 2.429472 -0.948058 -3.986922
  H 2.676598 -2.598892 -3.358821
  H 8.427433 0.149382 -1.296201
 26
 107.877874
  H 1.093317 0.192827 0.931466
  C 2.132296 0.138029 0.632867
  C 3.127648 0.614825 1.611952
  C 2.520395 1.118027 2.911019
  C 3.587820 1.592569 3.890294
  C 2.402166 -0.365633 -0.587946
  C 3.736582 -0.455839 -1.138733
  C 4.173916 -0.892971 -2.252693
  C 4.541116 -1.437446 -3.474022
  C 3.114895 -1.835633 -3.968098
  H 3.259723 -2.291743 -4.939881
  O 8.251390 -0.258598 -2.011960
  H 3.726746 1.419590 1.168875
  H 3.834511 -0.189305 1.840828
  H 1.934310 0.320628 3.376339
  H 1.832256 1.940811 2.702737
  H 4.270490 0.785613 4.147014
  H 3.130324 1.947860 4.808360
  H 4.169986 2.409222 3.468822
  H 1.603850 -0.716727 -1.223719
  H 4.527487 -0.078993 -0.475068
  H 5.177188 -2.318844 -3.395516
  H 4.991007 -0.722147 -4.157225
  H 2.473318 -0.964262 -4.075082
  H 2.650171 -2.562103 -3.302196
  H 8.671056 0.159930 -1.255099
 26
 107.022083
  H 1.086585 0.104785 0.938824
  C 2.125605 0.086297 0.633081
  C 3.110427 0.612904 1.600204
  C 2.491533 1.101058 2.902617
  C 3.542720 1.630517 3.864901
  C 2.405493 -0.410855 -0.585864
  C 3.740259 -0.488326 -1.129627
  C 4.206152 -0.918785 -2.243453
  C 4.607274 -1.399471 -3.472399
  C 3.123761 -1.747210 -3.855612
  H 3.192796 -2.173715 -4.856103
  O 8.224550 -0.376829 -2.102482
  H 3.671596 1.441150 1.141702
  H 3.855091 -0.162710 1.829675
  H 1.946604 0.283839 3.381701
  H 1.766536 1.892388 2.693271
  H 4.260311 0.859122 4.120811
  H 3.079044 1.972020 4.781430
  H 4.081457 2.465437 3.432105
  H 1.612793 -0.781342 -1.221564
  H 4.547510 -0.117296 -0.493113
  H 5.231988 -2.292354 -3.445517
  H 5.032806 -0.656522 -4.150882
  H 2.493479 -0.867676 -3.903935
  H 2.692666 -2.489566 -3.199352
  H 8.804926 -0.017170 -1.427083
