 23
 0.000000
  H 1.485182 0.082066 0.233648
  C 2.557964 0.092597 0.118282
  C 3.367980 0.007181 1.383151
  C 2.508659 -0.081009 2.641590
  C 3.366401 -0.165223 3.899010
  C 3.103539 0.153593 -1.096352
  C 2.325196 0.187986 -2.379117
  H 1.252139 0.209497 -2.215289
  C 4.550235 0.149119 -1.263617
  C 5.210824 0.195009 -2.420696
  O 6.562987 0.187740 -2.536912
  H 4.014627 0.887369 1.463699
  H 4.023579 -0.872578 1.330050
  H 1.868079 -0.964074 2.584807
  H 1.865104 0.799351 2.704277
  H 4.004288 -1.046334 3.868777
  H 2.740396 -0.226919 4.786376
  H 4.001173 0.714064 3.989031
  H 2.565488 -0.691169 -2.975971
  H 2.603997 1.068746 -2.956292
  H 5.148635 0.104246 -0.362871
  H 4.752166 0.242325 -3.395254
  H 6.965762 0.144971 -1.659597
 23
 -0.736842
  H 1.582447 0.312908 0.228141
  C 2.656937 0.252074 0.130308
  C 3.416579 0.187382 1.423257
  C 2.511217 -0.168360 2.600687
  C 3.289619 -0.245368 3.908126
  C 3.191343 0.211048 -1.094026
  C 2.321880 0.195670 -2.318577
  H 1.274553 0.306707 -2.047893
  C 4.628265 0.168205 -1.305727
  C 5.230571 0.040937 -2.483959
  O 6.570892 0.014994 -2.671398
  H 3.896544 1.151597 1.623913
  H 4.205913 -0.565125 1.339897
  H 2.031930 -1.130304 2.406241
  H 1.724967 0.583748 2.691411
  H 4.067333 -1.004219 3.845906
  H 2.628589 -0.499824 4.733757
  H 3.761496 0.710519 4.128934
  H 2.441464 -0.747102 -2.850778
  H 2.593855 1.005356 -2.993571
  H 5.252231 0.264919 -0.425861
  H 4.711845 -0.059289 -3.423863
  H 7.017122 0.105194 -1.826560
 23
 0.045776
  H 1.578537 0.623905 0.238562
  C 2.645397 0.472108 0.148069
  C 3.403275 0.386382 1.440126
  C 2.535535 -0.212031 2.548440
  C 3.306244 -0.348082 3.855688
  C 3.176197 0.276172 -1.062896
  C 2.319118 0.177369 -2.293452
  H 1.270197 0.314321 -2.041051
  C 4.612909 0.200905 -1.277623
  C 5.208743 -0.118216 -2.427336
  O 6.549690 -0.144269 -2.626377
  H 3.755675 1.373448 1.755320
  H 4.265098 -0.265291 1.277491
  H 2.179111 -1.194488 2.231199
  H 1.661537 0.423954 2.707566
  H 4.170768 -0.995606 3.723798
  H 2.673925 -0.774641 4.630999
  H 3.656798 0.624500 4.195551
  H 2.436159 -0.804173 -2.749213
  H 2.602518 0.930577 -3.026605
  H 5.246079 0.462306 -0.438825
  H 4.684480 -0.393427 -3.328465
  H 7.005085 0.106056 -1.811919
 23
 1.423873
  H 1.565189 0.881860 0.228319
  C 2.619673 0.651579 0.159838
  C 3.363006 0.573324 1.457906
  C 2.576711 -0.264037 2.472127
  C 3.342706 -0.428423 3.778728
  C 3.153967 0.353335 -1.027393
  C 2.305693 0.177436 -2.256484
  H 1.257539 0.353520 -2.025856
  C 4.590310 0.233471 -1.236861
  C 5.176616 -0.264162 -2.328582
  O 6.515758 -0.319101 -2.535064
  H 3.543670 1.564335 1.882360
  H 4.308890 0.069903 1.253270
  H 2.374032 -1.246482 2.040224
  H 1.615939 0.215979 2.672364
  H 4.293855 -0.927080 3.603886
  H 2.769357 -1.022762 4.486562
  H 3.543276 0.541874 4.228693
  H 2.405988 -0.839990 -2.629329
  H 2.610848 0.862264 -3.045804
  H 5.233577 0.622060 -0.456593
  H 4.644613 -0.681027 -3.168760
  H 6.978903 0.058849 -1.775974
 23
 7.434796
  H 1.626063 1.302712 0.161114
  C 2.608725 0.853765 0.160816
  C 3.342187 0.745358 1.463795
  C 2.574816 -0.217435 2.385689
  C 3.376312 -0.542472 3.639840
  C 3.132819 0.333849 -0.956823
  C 2.296031 0.001921 -2.163085
  H 1.239127 0.133742 -1.941362
  C 4.570789 0.273862 -1.180167
  C 5.176720 -0.337150 -2.200131
  O 6.507609 -0.284229 -2.456820
  H 3.484809 1.694914 1.976665
  H 4.266807 0.228280 1.197554
  H 2.356057 -1.136142 1.838220
  H 1.621089 0.232163 2.673274
  H 4.314709 -1.027514 3.379186
  H 2.814526 -1.209279 4.290127
  H 3.603519 0.365952 4.193997
  H 2.458525 -1.038180 -2.436958
  H 2.556577 0.624251 -3.017936
  H 5.193411 0.825223 -0.485230
  H 4.667621 -0.924864 -2.946919
  H 6.948431 0.250249 -1.783488
 23
 20.069257
  H 1.708750 1.579952 0.060388
  C 2.604572 0.985192 0.145368
  C 3.318108 0.824733 1.456519
  C 2.550389 -0.182241 2.339246
  C 3.393497 -0.614914 3.531464
  C 3.133459 0.300397 -0.888607
  C 2.294934 -0.164736 -2.052743
  H 1.237293 -0.033323 -1.833622
  C 4.559010 0.355944 -1.165283
  C 5.195792 -0.317131 -2.128252
  O 6.517236 -0.194747 -2.413306
  H 3.510923 1.731564 2.019965
  H 4.156916 0.208928 1.109067
  H 2.271501 -1.050920 1.740990
  H 1.625697 0.274446 2.705010
  H 4.304005 -1.109165 3.198893
  H 2.837012 -1.306658 4.159955
  H 3.673163 0.246556 4.134110
  H 2.480467 -1.223495 -2.220014
  H 2.531335 0.370963 -2.971451
  H 5.150763 0.993661 -0.518293
  H 4.716229 -0.991571 -2.819033
  H 6.921176 0.444837 -1.812608
 23
 40.958939
  H 1.816693 1.830853 -0.076099
  C 2.594421 1.108860 0.111454
  C 3.246713 0.876024 1.443286
  C 2.506100 -0.157517 2.328774
  C 3.422420 -0.675762 3.427024
  C 3.139685 0.287664 -0.825703
  C 2.329203 -0.310879 -1.952261
  H 1.266706 -0.249216 -1.725191
  C 4.558872 0.388383 -1.114195
  C 5.211555 -0.263781 -2.082242
  O 6.511799 -0.050404 -2.414081
  H 3.512700 1.748541 2.027288
  H 3.937773 0.114269 0.993304
  H 2.138026 -0.982472 1.717775
  H 1.632815 0.314810 2.794630
  H 4.282404 -1.189654 3.001791
  H 2.887659 -1.372713 4.068366
  H 3.785482 0.145433 4.040803
  H 2.597330 -1.358579 -2.064010
  H 2.510875 0.189087 -2.904078
  H 5.113411 1.106438 -0.520316
  H 4.769245 -1.008701 -2.722854
  H 6.888520 0.619560 -1.829467
 23
 68.682636
  H 1.876727 2.004024 -0.176103
  C 2.585914 1.236029 0.090059
  C 3.128881 0.946930 1.425158
  C 2.489428 -0.170617 2.282059
  C 3.474362 -0.711024 3.307475
  C 3.151050 0.305963 -0.759726
  C 2.341768 -0.376212 -1.845066
  H 1.278837 -0.289448 -1.629120
  C 4.568100 0.438480 -1.081231
  C 5.225524 -0.253846 -2.015587
  O 6.530744 -0.055133 -2.348921
  H 3.383896 1.795237 2.057183
  H 3.765795 0.060934 0.818017
  H 2.118153 -0.981077 1.652503
  H 1.624967 0.250063 2.813389
  H 4.330718 -1.169315 2.815664
  H 2.995659 -1.459989 3.934082
  H 3.837397 0.090093 3.947312
  H 2.599099 -1.431809 -1.886454
  H 2.535757 0.057749 -2.826565
  H 5.110893 1.187320 -0.514798
  H 4.787802 -1.027482 -2.623939
  H 6.898946 0.648859 -1.800352
 23
 83.625563
  H 1.943520 2.082899 -0.193899
  C 2.601008 1.287857 0.122784
  C 3.038214 0.998131 1.429659
  C 2.467734 -0.161613 2.246891
  C 3.473947 -0.720457 3.246318
  C 3.190245 0.283478 -0.706236
  C 2.345362 -0.416180 -1.752716
  H 1.290661 -0.321682 -1.504353
  C 4.613581 0.445653 -1.073358
  C 5.249306 -0.233641 -2.022852
  O 6.551380 -0.034504 -2.380485
  H 3.256274 1.834753 2.105290
  H 3.714914 -0.045008 0.619251
  H 2.110084 -0.962965 1.596289
  H 1.602546 0.225762 2.798687
  H 4.334230 -1.144132 2.730496
  H 3.017243 -1.500777 3.850822
  H 3.826937 0.065222 3.910832
  H 2.592482 -1.474857 -1.797839
  H 2.515556 0.012554 -2.739972
  H 5.159442 1.198380 -0.514303
  H 4.801206 -1.007393 -2.623355
  H 6.929287 0.667790 -1.836229
 23
 69.123141
  H 2.024477 2.121833 -0.181918
  C 2.652280 1.318774 0.173333
  C 2.988533 1.045457 1.459180
  C 2.450212 -0.137134 2.235485
  C 3.441153 -0.704041 3.253277
  C 3.245452 0.233552 -0.659905
  C 2.357371 -0.454082 -1.674783
  H 1.312836 -0.337384 -1.397086
  C 4.677454 0.434516 -1.085346
  C 5.274279 -0.187307 -2.095354
  O 6.567138 0.017834 -2.483960
  H 3.172603 1.861860 2.172115
  H 3.677722 -0.182589 0.396071
  H 2.126742 -0.936838 1.563217
  H 1.568135 0.229962 2.768555
  H 4.322486 -1.101155 2.751885
  H 2.982918 -1.505978 3.828425
  H 3.761466 0.072770 3.944653
  H 2.576494 -1.518553 -1.730647
  H 2.512416 -0.022356 -2.661716
  H 5.240362 1.153889 -0.499748
  H 4.800371 -0.925621 -2.719730
  H 6.969616 0.684238 -1.915959
 23
 43.079525
  H 2.296604 2.162600 -0.209224
  C 2.776853 1.293653 0.211601
  C 2.935408 1.056442 1.514077
  C 2.423888 -0.150526 2.254935
  C 3.383837 -0.682282 3.320069
  C 3.300604 0.147298 -0.628950
  C 2.367762 -0.478104 -1.645284
  H 1.336188 -0.383811 -1.313429
  C 4.705962 0.411454 -1.126308
  C 5.262373 -0.146440 -2.188349
  O 6.533340 0.088578 -2.621960
  H 3.029574 1.885908 2.221706
  H 3.648768 -0.415172 0.281206
  H 2.162082 -0.958694 1.568231
  H 1.504693 0.185814 2.741708
  H 4.302073 -1.044222 2.861332
  H 2.929105 -1.502509 3.871277
  H 3.641310 0.104407 4.026307
  H 2.586079 -1.534857 -1.781441
  H 2.473717 0.021667 -2.605472
  H 5.276754 1.119143 -0.535561
  H 4.768262 -0.861582 -2.825048
  H 6.957138 0.729620 -2.038934
 23
 25.113573
  H 2.500329 2.108275 -0.263444
  C 2.853365 1.206912 0.213786
  C 2.848696 1.031035 1.534291
  C 2.428984 -0.201067 2.289150
  C 3.393418 -0.596503 3.407587
  C 3.323503 0.046718 -0.633394
  C 2.354422 -0.444074 -1.696506
  H 1.329827 -0.272601 -1.373562
  C 4.720896 0.335492 -1.129611
  C 5.234320 -0.076906 -2.277336
  O 6.505559 0.165603 -2.701708
  H 2.875973 1.881875 2.214556
  H 3.549765 -0.668266 0.180087
  H 2.277365 -1.052828 1.624302
  H 1.459525 0.053092 2.727321
  H 4.361586 -0.872896 2.994873
  H 3.004746 -1.444028 3.967891
  H 3.539776 0.233480 4.095808
  H 2.480783 -1.508074 -1.880815
  H 2.517078 0.090554 -2.628925
  H 5.333058 0.917873 -0.450322
  H 4.698272 -0.671655 -2.999457
  H 6.968130 0.698100 -2.042688
 23
 13.827916
  H 2.679956 2.058804 -0.265513
  C 2.880178 1.117794 0.227077
  C 2.747333 0.982618 1.537703
  C 2.455375 -0.274691 2.307890
  C 3.432986 -0.501145 3.461087
  C 3.304211 -0.033984 -0.650068
  C 2.325061 -0.352531 -1.772641
  H 1.303368 -0.227447 -1.419705
  C 4.709517 0.251059 -1.121410
  C 5.219878 -0.092564 -2.293320
  O 6.496243 0.151398 -2.697270
  H 2.685147 1.841543 2.199315
  H 3.421430 -0.868904 0.057707
  H 2.437264 -1.157973 1.669815
  H 1.448482 -0.146023 2.717106
  H 4.441150 -0.648430 3.079283
  H 3.150813 -1.380005 4.036490
  H 3.442301 0.358593 4.127899
  H 2.445397 -1.377346 -2.114557
  H 2.483063 0.317206 -2.614390
  H 5.333676 0.767038 -0.400303
  H 4.670682 -0.616160 -3.059650
  H 6.970612 0.620351 -1.999327
 23
 8.138851
  H 2.995854 2.016260 -0.212622
  C 2.982381 1.042701 0.260270
  C 2.665333 0.938226 1.539883
  C 2.427578 -0.319319 2.323404
  C 3.363979 -0.415171 3.527902
  C 3.372514 -0.105103 -0.636751
  C 2.337539 -0.336036 -1.735158
  H 1.335883 -0.274932 -1.314562
  C 4.757561 0.180676 -1.154557
  C 5.190484 -0.024844 -2.388433
  O 6.450915 0.229763 -2.831944
  H 2.533936 1.819676 2.156815
  H 3.450785 -0.991307 0.006994
  H 2.533297 -1.211769 1.707920
  H 1.393736 -0.289282 2.682084
  H 4.399634 -0.465388 3.198252
  H 3.144464 -1.305085 4.113449
  H 3.251461 0.456136 4.169712
  H 2.462378 -1.317864 -2.184863
  H 2.430957 0.420439 -2.510291
  H 5.440643 0.581684 -0.413462
  H 4.582061 -0.429075 -3.181738
  H 6.980752 0.588813 -2.109082
 23
 6.781211
  H 3.319556 2.008603 -0.126320
  C 3.152237 1.031704 0.307507
  C 2.665426 0.940499 1.534171
  C 2.338434 -0.306389 2.298412
  C 3.199522 -0.416967 3.556495
  C 3.525079 -0.128330 -0.580994
  C 2.402779 -0.407743 -1.581064
  H 1.457625 -0.503416 -1.051256
  C 4.850274 0.168901 -1.225522
  C 5.141091 0.069871 -2.513058
  O 6.352224 0.342122 -3.067116
  H 2.483958 1.839567 2.111718
  H 3.660612 -1.007147 0.060771
  H 2.469119 -1.198521 1.686977
  H 1.285593 -0.260319 2.592980
  H 4.251594 -0.485295 3.288743
  H 2.929606 -1.302223 4.127380
  H 3.064233 0.456639 4.190200
  H 2.590398 -1.330995 -2.124246
  H 2.316376 0.409681 -2.292256
  H 5.621749 0.491595 -0.533888
  H 4.439600 -0.244445 -3.268796
  H 6.967038 0.621806 -2.377616
