 21
 0.000000
  C 0.877859 0.043881 0.358040
  C 2.355857 0.059721 0.077307
  C 3.259753 -0.008543 1.287161
  H 2.703352 -0.061086 2.218289
  C 2.921873 0.127472 -1.123352
  C 2.364979 0.206055 -2.516025
  C 0.856290 0.218647 -2.739149
  C 0.540210 0.302764 -4.229875
  H 4.007163 0.128866 -1.147988
  H 0.690103 -0.016530 1.428609
  H 0.398803 -0.816065 -0.104337
  H 0.398804 0.950387 -0.004658
  H 3.905736 0.868515 1.326881
  H 3.905744 -0.884500 1.227965
  H 2.780825 -0.640094 -3.076404
  H 2.780804 1.109835 -2.977629
  H 0.407365 1.077408 -2.240087
  H 0.407375 -0.690796 -2.339872
  H 0.956132 1.210925 -4.661656
  H -0.535927 0.311762 -4.389359
  H 0.956133 -0.551053 -4.761078
 21
 13.875782
  C 0.863823 0.040061 0.425741
  C 2.334926 0.055771 0.147289
  C 3.246710 -0.011605 1.341407
  H 2.696498 -0.064317 2.275532
  C 2.960605 0.131860 -1.201132
  C 2.388390 0.209598 -2.578819
  C 0.875840 0.220507 -2.772115
  C 0.528695 0.304237 -4.255986
  H 4.041872 0.133440 -1.229092
  H 0.677413 -0.020314 1.495670
  H 0.384377 -0.819762 -0.038337
  H 0.384379 0.946637 0.061338
  H 3.892709 0.865959 1.376199
  H 3.892714 -0.887509 1.277258
  H 2.796495 -0.636799 -3.145599
  H 2.796489 1.114369 -3.046773
  H 0.436870 1.078580 -2.262701
  H 0.436874 -0.689423 -2.362468
  H 0.934794 1.212855 -4.696190
  H -0.550504 0.311994 -4.393460
  H 0.934796 -0.549094 -4.795612
 21
 40.523247
  C 0.831692 0.041561 0.399153
  C 2.309016 0.051992 0.214269
  C 3.243175 -0.013596 1.376689
  H 2.688512 -0.066452 2.313428
  C 3.031883 0.135415 -1.264165
  C 2.430221 0.212566 -2.631472
  C 0.908992 0.219928 -2.761908
  C 0.488543 0.302534 -4.225814
  H 4.109723 0.133165 -1.224249
  H 0.591798 -0.018402 1.461809
  H 0.371032 -0.811816 -0.097206
  H 0.371035 0.945362 0.001949
  H 3.891079 0.865044 1.413499
  H 3.891092 -0.890801 1.314428
  H 2.827311 -0.633689 -3.214261
  H 2.827313 1.119017 -3.115360
  H 0.502725 1.073786 -2.223596
  H 0.502725 -0.689066 -2.323069
  H 0.872179 1.211674 -4.684670
  H -0.595889 0.307442 -4.312751
  H 0.872176 -0.549216 -4.784036
 21
 71.139305
  C 0.811121 0.037149 0.477336
  C 2.280106 0.047985 0.285280
  C 3.235944 -0.016194 1.422741
  H 2.697532 -0.069526 2.367905
  C 3.059131 0.139850 -1.342745
  C 2.446164 0.215857 -2.689792
  C 0.926346 0.222105 -2.800486
  C 0.487411 0.304315 -4.257383
  H 4.133610 0.136876 -1.289984
  H 0.583186 -0.022904 1.541575
  H 0.345467 -0.815387 -0.014465
  H 0.345468 0.939603 0.084566
  H 3.883132 0.860559 1.448415
  H 3.883145 -0.890270 1.349625
  H 2.834592 -0.627614 -3.276738
  H 2.834585 1.119997 -3.178116
  H 0.526006 1.077425 -2.256200
  H 0.526008 -0.689007 -2.355880
  H 0.864691 1.213913 -4.721021
  H -0.597798 0.308442 -4.330470
  H 0.864688 -0.547348 -4.820406
 21
 100.828444
  C 0.788672 0.034349 0.526988
  C 2.256456 0.043996 0.355986
  C 3.227004 -0.019061 1.473540
  H 2.697214 -0.072820 2.426277
  C 3.105085 0.143937 -1.415155
  C 2.472635 0.219330 -2.751321
  C 0.947680 0.223568 -2.826374
  C 0.470925 0.305172 -4.272534
  H 4.178041 0.139687 -1.339807
  H 0.550408 -0.025704 1.591211
  H 0.325200 -0.818693 0.028288
  H 0.325203 0.938080 0.127421
  H 3.876737 0.859512 1.492237
  H 3.876749 -0.894161 1.393286
  H 2.850484 -0.626811 -3.349536
  H 2.850480 1.127396 -3.250543
  H 0.560739 1.077627 -2.271770
  H 0.560734 -0.687466 -2.371367
  H 0.835008 1.215297 -4.745640
  H -0.615981 0.307757 -4.318270
  H 0.835009 -0.545961 -4.845034
 21
 127.027322
  C 0.765588 0.031469 0.578034
  C 2.230874 0.040184 0.423532
  C 3.216422 -0.021795 1.521956
  H 2.698468 -0.075951 2.481726
  C 3.146278 0.148278 -1.492074
  C 2.496493 0.222800 -2.812822
  C 0.971938 0.225004 -2.851843
  C 0.459229 0.305850 -4.284614
  H 4.216353 0.142990 -1.398314
  H 0.518576 -0.028496 1.640695
  H 0.305076 -0.819784 0.075038
  H 0.305079 0.933909 0.173996
  H 3.866260 0.855752 1.532702
  H 3.866269 -0.894981 1.433914
  H 2.861090 -0.621881 -3.419043
  H 2.861082 1.130315 -3.320165
  H 0.598497 1.078604 -2.286774
  H 0.598502 -0.686737 -2.386393
  H 0.810071 1.216457 -4.766622
  H -0.628256 0.306892 -4.303096
  H 0.810070 -0.544750 -4.865997
 21
 149.302581
  C 0.743373 0.028535 0.630039
  C 2.206475 0.036295 0.492444
  C 3.204593 -0.024654 1.572628
  H 2.697703 -0.079247 2.540124
  C 3.189604 0.152517 -1.567173
  C 2.522277 0.226346 -2.875630
  C 0.994896 0.226482 -2.877998
  C 0.444787 0.306580 -4.297496
  H 4.257238 0.146266 -1.456364
  H 0.485487 -0.031372 1.691704
  H 0.285810 -0.822955 0.121057
  H 0.285816 0.931883 0.220082
  H 3.855542 0.853987 1.575565
  H 3.855550 -0.898049 1.476703
  H 2.874256 -0.619758 -3.491401
  H 2.874248 1.136347 -3.392300
  H 0.635515 1.079397 -2.302468
  H 0.635513 -0.685767 -2.402070
  H 0.781691 1.217775 -4.788516
  H -0.643003 0.306038 -4.287868
  H 0.781695 -0.543605 -4.887915
 21
 167.530785
  C 0.720185 0.025441 0.684853
  C 2.181153 0.032463 0.560334
  C 3.192235 -0.027521 1.623426
  H 2.698335 -0.082537 2.598431
  C 3.229131 0.156890 -1.644659
  C 2.545793 0.229943 -2.939402
  C 1.019136 0.228020 -2.905292
  C 0.433294 0.307259 -4.309591
  H 4.294443 0.149901 -1.520785
  H 0.452569 -0.034367 1.744763
  H 0.265789 -0.825134 0.171507
  H 0.265794 0.928372 0.270455
  H 3.843138 0.851143 1.618012
  H 3.843146 -0.899996 1.519203
  H 2.883893 -0.615895 -3.562981
  H 2.883883 1.140556 -3.463859
  H 0.674035 1.080108 -2.319893
  H 0.674038 -0.684508 -2.419470
  H 0.756233 1.218857 -4.808966
  H -0.653718 0.305149 -4.272202
  H 0.756231 -0.542369 -4.908342
 21
 181.701059
  C 0.703097 0.021079 0.762165
  C 2.158309 0.028521 0.630137
  C 3.173685 -0.030716 1.680017
  H 2.694505 -0.086386 2.666634
  C 3.260390 0.161445 -1.725263
  C 2.567786 0.233819 -3.008052
  C 1.040655 0.230133 -2.942697
  C 0.424563 0.308670 -4.334603
  H 4.328576 0.154553 -1.603250
  H 0.430229 -0.038888 1.824896
  H 0.250537 -0.828758 0.246914
  H 0.250547 0.923491 0.345793
  H 3.823163 0.847803 1.663552
  H 3.823171 -0.901803 1.564830
  H 2.894721 -0.612533 -3.637924
  H 2.894717 1.145655 -3.538712
  H 0.707459 1.081680 -2.348713
  H 0.707459 -0.682829 -2.448274
  H 0.735480 1.220818 -4.841038
  H -0.661526 0.305237 -4.273744
  H 0.735481 -0.540720 -4.940433
 21
 175.713159
  C 0.720217 0.004292 1.060826
  C 2.152585 0.024133 0.709659
  C 3.111288 -0.038234 1.815886
  H 2.674641 -0.096069 2.833060
  C 3.216546 0.167850 -1.836463
  C 2.593803 0.241608 -3.146373
  C 1.061652 0.238387 -3.088533
  C 0.437092 0.317499 -4.491446
  H 4.324768 0.168807 -1.855083
  H 0.488681 -0.057171 2.147776
  H 0.259887 -0.854877 0.570649
  H 0.259704 0.913028 0.670322
  H 3.743962 0.848802 1.766818
  H 3.743510 -0.914435 1.667250
  H 2.933937 -0.594940 -3.768887
  H 2.933899 1.142873 -3.670846
  H 0.720635 1.083804 -2.493456
  H 0.720587 -0.668560 -2.592247
  H 0.739952 1.231059 -4.999742
  H -0.654302 0.313785 -4.425361
  H 0.739921 -0.533196 -5.099213
 21
 169.475150
  C 0.635516 -0.020642 1.505603
  C 2.049330 0.001529 1.110065
  C 3.015228 -0.061152 2.217706
  H 2.607948 -0.118788 3.238292
  C 3.460249 0.195417 -2.319302
  C 2.670707 0.263964 -3.544655
  C 1.159457 0.251190 -3.321915
  C 0.392335 0.325720 -4.636951
  H 4.537023 0.209440 -2.580621
  H 0.417716 -0.081273 2.578391
  H 0.169617 -0.859484 0.982857
  H 0.169840 0.872007 1.080733
  H 3.665350 0.810648 2.122555
  H 3.665158 -0.916672 2.024988
  H 2.965092 -0.566728 -4.203149
  H 2.964927 1.164111 -4.104582
  H 0.891689 1.095470 -2.685031
  H 0.891850 -0.659819 -2.784625
  H 0.637396 1.239378 -5.174705
  H -0.681074 0.315351 -4.456420
  H 0.637614 -0.521225 -5.274637
