 20
 0.000000
  C -0.754907 1.475365 -2.174542
  C -1.551544 0.371665 -1.480576
  C -1.085982 0.193769 -0.035046
  C -3.035129 0.668683 -1.514464
  O -3.475766 1.725194 -1.923883
  C -3.955862 -0.414053 -1.016760
  H 0.304404 1.236263 -2.194211
  H -0.884716 2.427849 -1.664859
  H -1.091357 1.603683 -3.201055
  H -1.399368 -0.563240 -2.031529
  H -1.294759 1.086329 0.551290
  H -0.018660 0.001702 0.001436
  H -1.589092 -0.642266 0.445394
  H -3.418040 -1.336804 -0.817393
  H -4.712464 -0.609444 -1.772110
  H -4.440252 -0.075957 -0.104540
  O 2.952687 0.160477 0.058538
  H 1.990322 -0.006347 0.004395
  H 3.459314 -0.680407 0.088515
  H 3.173181 0.741192 0.819381
 20
 0.758880
  C -0.708302 1.482705 -2.179968
  C -1.489484 0.384024 -1.483025
  C -1.024040 0.205050 -0.026750
  C -2.975882 0.666961 -1.494970
  O -3.433512 1.728105 -1.885789
  C -3.862569 -0.436745 -0.991678
  H 0.349693 1.247240 -2.216778
  H -0.850588 2.432737 -1.666264
  H -1.068993 1.607569 -3.196124
  H -1.344917 -0.557586 -2.031783
  H -1.231737 1.111050 0.549014
  H 0.044193 0.022124 -0.004289
  H -1.522277 -0.632741 0.460712
  H -3.318387 -1.360737 -0.814575
  H -4.648149 -0.612269 -1.721548
  H -4.343827 -0.109308 -0.074297
  O 2.712951 0.150526 0.017973
  H 1.743891 -0.003798 -0.021654
  H 3.197756 -0.690675 0.053411
  H 2.940015 0.730505 0.764380
 20
 1.975997
  C -0.661758 1.480311 -2.165730
  C -1.443042 0.373314 -1.466580
  C -0.980840 0.208608 -0.027051
  C -2.932770 0.661636 -1.476382
  O -3.387195 1.725109 -1.857674
  C -3.819458 -0.446718 -0.979333
  H 0.398265 1.245164 -2.206758
  H -0.803973 2.429447 -1.647593
  H -1.025046 1.608518 -3.182015
  H -1.303569 -0.567554 -2.010345
  H -1.191104 1.117269 0.536485
  H 0.096174 0.033473 -0.020223
  H -1.474126 -0.624506 0.466458
  H -3.277979 -1.377026 -0.813800
  H -4.610779 -0.608035 -1.699922
  H -4.296338 -0.126474 -0.054499
  O 2.528691 0.158110 -0.032122
  H 1.545109 0.002940 -0.056439
  H 3.017776 -0.684741 0.005270
  H 2.773626 0.757413 0.716067
 20
 5.183370
  C -0.628320 1.483160 -2.168259
  C -1.409616 0.367879 -1.464445
  C -0.939661 0.201988 -0.020297
  C -2.910214 0.660429 -1.463025
  O -3.365002 1.726054 -1.837570
  C -3.793877 -0.447907 -0.966521
  H 0.431312 1.251462 -2.218882
  H -0.769828 2.433821 -1.649900
  H -0.997420 1.614925 -3.183430
  H -1.270773 -0.578475 -2.015928
  H -1.160097 1.111059 0.539332
  H 0.148087 0.028445 -0.026536
  H -1.434440 -0.636348 0.472317
  H -3.250197 -1.372424 -0.808483
  H -4.589594 -0.610762 -1.682885
  H -4.259784 -0.135154 -0.032423
  O 2.396001 0.171319 -0.051316
  H 1.391337 0.013060 -0.065276
  H 2.896888 -0.673952 -0.019263
  H 2.646263 0.762286 0.676870
 20
 11.725358
  C -0.627459 1.479331 -2.166859
  C -1.405775 0.368182 -1.465339
  C -0.931267 0.198883 -0.017907
  C -2.893158 0.662249 -1.460478
  O -3.340199 1.722375 -1.837663
  C -3.783672 -0.448630 -0.965506
  H 0.435289 1.243783 -2.221250
  H -0.768813 2.430048 -1.647529
  H -0.998439 1.612374 -3.182851
  H -1.267880 -0.573089 -2.011547
  H -1.144453 1.104463 0.549459
  H 0.197071 0.021372 -0.029223
  H -1.422275 -0.638335 0.469893
  H -3.248271 -1.381869 -0.807082
  H -4.582191 -0.599607 -1.681124
  H -4.256151 -0.130231 -0.037602
  O 2.365995 0.182745 -0.059942
  H 1.289313 0.017351 -0.068852
  H 2.871274 -0.666649 -0.034549
  H 2.619161 0.769699 0.669481
 20
 18.655989
  C -0.610218 1.481008 -2.174311
  C -1.384573 0.368217 -1.464241
  C -0.908639 0.203503 -0.020275
  C -2.874907 0.659925 -1.453595
  O -3.324200 1.729167 -1.815992
  C -3.759360 -0.457985 -0.960462
  H 0.455402 1.245805 -2.239330
  H -0.744904 2.432135 -1.653317
  H -0.992943 1.615323 -3.187486
  H -1.254995 -0.566975 -2.009769
  H -1.102664 1.109829 0.547193
  H 0.212595 0.024046 -0.035283
  H -1.385176 -0.631300 0.476729
  H -3.222261 -1.391206 -0.822992
  H -4.569037 -0.598741 -1.662824
  H -4.217148 -0.153549 -0.020026
  O 2.283714 0.183752 -0.072200
  H 1.156540 0.026216 -0.072300
  H 2.774791 -0.671886 -0.040621
  H 2.545097 0.770046 0.653603
 20
 28.665411
  C -0.618665 1.477839 -2.174490
  C -1.391781 0.369724 -1.465642
  C -0.925428 0.208719 -0.023984
  C -2.886771 0.660855 -1.455992
  O -3.334319 1.730112 -1.816963
  C -3.764311 -0.455943 -0.968050
  H 0.445841 1.239701 -2.237854
  H -0.750448 2.428493 -1.653923
  H -1.000927 1.611870 -3.187789
  H -1.264345 -0.565964 -2.007752
  H -1.099354 1.116771 0.544396
  H 0.234027 0.024066 -0.037296
  H -1.387631 -0.629065 0.477602
  H -3.225399 -1.389420 -0.840655
  H -4.577287 -0.594490 -1.668286
  H -4.216334 -0.158352 -0.023506
  O 2.327715 0.184752 -0.070296
  H 1.085161 0.021105 -0.068973
  H 2.802807 -0.667870 -0.028698
  H 2.588293 0.766444 0.654567
 20
 41.602968
  C -0.640619 1.475741 -2.175182
  C -1.418972 0.369780 -1.467046
  C -0.967382 0.213539 -0.026864
  C -2.918375 0.663604 -1.466487
  O -3.358648 1.734512 -1.827544
  C -3.801280 -0.453196 -0.984145
  H 0.419451 1.236184 -2.231776
  H -0.771902 2.425178 -1.659190
  H -1.015954 1.608072 -3.187962
  H -1.289856 -0.570859 -2.007367
  H -1.132368 1.124075 0.540526
  H 0.296504 0.011110 -0.034149
  H -1.428180 -0.626386 0.477589
  H -3.266354 -1.387879 -0.859032
  H -4.616695 -0.587726 -1.688784
  H -4.253130 -0.157379 -0.038453
  O 2.453992 0.185229 -0.054233
  H 1.078318 0.010282 -0.059398
  H 2.923786 -0.663204 -0.003650
  H 2.709692 0.768733 0.674394
 20
 55.390398
  C -0.670452 1.463421 -2.165455
  C -1.454894 0.357585 -1.470502
  C -1.035314 0.212629 -0.041031
  C -2.965588 0.667591 -1.475925
  O -3.380820 1.740693 -1.841216
  C -3.855357 -0.441381 -1.004454
  H 0.387904 1.219679 -2.206338
  H -0.805562 2.411081 -1.650134
  H -1.031643 1.597533 -3.181876
  H -1.316822 -0.585297 -2.010322
  H -1.179080 1.122526 0.526101
  H 0.337735 -0.005024 -0.034267
  H -1.476558 -0.630082 0.470843
  H -3.330996 -1.384480 -0.880409
  H -4.671025 -0.565356 -1.716725
  H -4.313172 -0.141259 -0.062283
  O 2.646723 0.200643 -0.032643
  H 1.070632 -0.000656 -0.052650
  H 3.117784 -0.645181 0.029595
  H 2.891230 0.780911 0.699528
 20
 66.918238
  C -0.711822 1.461127 -2.168698
  C -1.510501 0.358969 -1.471478
  C -1.116735 0.218061 -0.052762
  C -3.038191 0.674561 -1.487651
  O -3.428337 1.748051 -1.860384
  C -3.923516 -0.437073 -1.033212
  H 0.347625 1.211693 -2.187309
  H -0.850433 2.416622 -1.665161
  H -1.056279 1.587768 -3.193897
  H -1.356062 -0.587604 -2.000452
  H -1.232543 1.128253 0.521699
  H 0.376042 -0.027100 -0.029898
  H -1.547308 -0.624653 0.469848
  H -3.397507 -1.374276 -0.905249
  H -4.730917 -0.563246 -1.750052
  H -4.388021 -0.141080 -0.091722
  O 2.900112 0.201560 0.007688
  H 1.076642 -0.024700 -0.039347
  H 3.369104 -0.635441 0.075396
  H 3.142530 0.773885 0.746625
 20
 70.726002
  C -0.801259 1.463241 -2.184723
  C -1.576143 0.358231 -1.471979
  C -1.252741 0.252449 -0.060459
  C -3.136400 0.681528 -1.506852
  O -3.487212 1.760690 -1.877755
  C -4.010963 -0.436284 -1.078690
  H 0.259792 1.221462 -2.194125
  H -0.946493 2.426846 -1.692912
  H -1.142550 1.564179 -3.215125
  H -1.445740 -0.596086 -1.995863
  H -1.302888 1.165401 0.516202
  H 0.392382 -0.054001 -0.009540
  H -1.644444 -0.608965 0.460724
  H -3.487751 -1.376860 -0.964187
  H -4.816167 -0.548242 -1.802493
  H -4.487043 -0.151601 -0.139110
  O 3.313970 0.189654 0.087467
  H 1.108796 -0.058488 -0.007159
  H 3.786747 -0.649171 0.178154
  H 3.567127 0.740383 0.834043
 20
 73.159510
  C -0.876960 1.469559 -2.190897
  C -1.642428 0.378848 -1.465093
  C -1.373309 0.288852 -0.067152
  C -3.244042 0.686622 -1.537971
  O -3.576124 1.759061 -1.915757
  C -4.091260 -0.445187 -1.122708
  H 0.186780 1.225258 -2.183242
  H -1.020331 2.437617 -1.718534
  H -1.208548 1.551245 -3.221793
  H -1.525826 -0.575903 -1.986210
  H -1.351230 1.208104 0.502359
  H 0.437931 -0.085406 0.009868
  H -1.738015 -0.578913 0.467617
  H -3.555385 -1.375897 -1.002465
  H -4.886748 -0.571358 -1.853840
  H -4.579575 -0.167857 -0.185268
  O 3.665856 0.160835 0.159878
  H 1.153180 -0.097322 0.021961
  H 4.141621 -0.673626 0.251376
  H 3.934348 0.706793 0.905391
 20
 75.716453
  C -0.953543 1.475386 -2.188506
  C -1.705438 0.382372 -1.457923
  C -1.482329 0.317561 -0.068423
  C -3.343333 0.685552 -1.571830
  O -3.645076 1.749967 -1.969437
  C -4.176313 -0.448009 -1.168767
  H 0.111782 1.240492 -2.171781
  H -1.104773 2.446484 -1.725635
  H -1.278130 1.541770 -3.220856
  H -1.591643 -0.570873 -1.986465
  H -1.415787 1.241191 0.486792
  H 0.531774 -0.128421 0.039822
  H -1.835540 -0.550868 0.472369
  H -3.638205 -1.369268 -1.027599
  H -4.962459 -0.582720 -1.904259
  H -4.674524 -0.167158 -0.238243
  O 4.004153 0.133333 0.218202
  H 1.240562 -0.142431 0.055037
  H 4.483700 -0.699109 0.344103
  H 4.283892 0.684895 0.959095
 20
 77.537539
  C -1.020414 1.475422 -2.203322
  C -1.764527 0.380281 -1.459257
  C -1.578261 0.334129 -0.073802
  C -3.433589 0.691177 -1.582962
  O -3.709394 1.760849 -1.973073
  C -4.256376 -0.447611 -1.201285
  H 0.045877 1.250821 -2.181857
  H -1.180200 2.451479 -1.748191
  H -1.344309 1.529580 -3.238652
  H -1.658952 -0.569918 -1.990118
  H -1.490040 1.264369 0.467021
  H 0.646774 -0.176834 0.076907
  H -1.939737 -0.521729 0.484761
  H -3.716698 -1.377673 -1.070175
  H -5.044319 -0.570764 -1.952270
  H -4.769315 -0.178243 -0.273288
  O 4.338770 0.108935 0.296787
  H 1.345516 -0.189640 0.099060
  H 4.812466 -0.716852 0.427133
  H 4.610026 0.675655 1.028205
