 26
 0.000000
  C 1.009700 0.118546 0.347071
  C 2.485021 0.131007 0.378292
  C 3.242720 0.606320 1.560418
  C 2.439927 1.090656 2.764620
  C 3.372624 1.540945 3.884987
  C 3.139038 -0.326757 -0.760487
  C 4.522130 -0.396493 -0.935060
  C 5.168600 -0.854754 -2.078572
  C 4.530733 -1.351076 -3.315943
  H 3.452610 -1.357766 -3.332116
  O 6.481906 -0.879497 -2.142337
  H 0.555517 0.485485 1.259459
  H 0.651875 -0.895883 0.165550
  H 0.651974 0.725008 -0.486155
  H 3.901240 1.421458 1.240006
  H 3.901081 -0.203821 1.893561
  H 1.802052 0.289397 3.141822
  H 1.802386 1.930223 2.482081
  H 4.008191 0.722592 4.216173
  H 2.796076 1.884875 4.740173
  H 4.008494 2.360524 3.557580
  H 2.510544 -0.654204 -1.575397
  H 5.146099 -0.067057 -0.114817
  H 4.900640 -2.360885 -3.502080
  H 4.900385 -0.749559 -4.148170
  H 6.927476 -0.556491 -1.336779
 26
 14.788663
  C 0.993725 0.127472 0.369464
  C 2.467440 0.140981 0.403554
  C 3.222643 0.616599 1.586285
  C 2.418007 1.100768 2.789620
  C 3.350420 1.551189 3.910233
  C 3.125453 -0.317303 -0.736282
  C 4.499173 -0.383751 -0.902610
  C 5.185522 -0.887578 -2.160213
  C 4.542923 -1.373786 -3.372983
  H 3.461865 -1.368473 -3.359318
  O 6.631820 -0.912649 -2.224942
  H 0.538313 0.494237 1.281164
  H 0.637239 -0.887045 0.185314
  H 0.637474 0.732138 -0.465805
  H 3.881912 1.431637 1.266996
  H 3.881644 -0.192709 1.920332
  H 1.780465 0.299197 3.166524
  H 1.780936 1.940408 2.506471
  H 3.985922 0.732864 4.241483
  H 2.774055 1.895255 4.765431
  H 3.986382 2.370676 3.582774
  H 2.499364 -0.645972 -1.554252
  H 5.134617 -0.059045 -0.093974
  H 4.901304 -2.387272 -3.566743
  H 4.901098 -0.774588 -4.213109
  H 7.059915 -0.588598 -1.416935
 26
 45.471706
  C 0.994014 0.124006 0.364358
  C 2.464206 0.144367 0.414188
  C 3.207815 0.621366 1.598674
  C 2.402893 1.105810 2.801998
  C 3.339140 1.556188 3.919627
  C 3.128619 -0.306661 -0.707725
  C 4.476930 -0.361057 -0.842942
  C 5.162047 -0.910573 -2.217438
  C 4.527339 -1.387674 -3.413801
  H 3.442212 -1.364270 -3.359396
  O 6.757687 -0.922436 -2.243735
  H 0.532468 0.489499 1.272733
  H 0.642577 -0.892150 0.178169
  H 0.642263 0.727842 -0.473712
  H 3.875177 1.432255 1.285504
  H 3.875730 -0.179897 1.934575
  H 1.767849 0.303482 3.181030
  H 1.767561 1.946739 2.519169
  H 3.976515 0.738092 4.247352
  H 2.767619 1.902270 4.777128
  H 3.975382 2.373862 3.588141
  H 2.514470 -0.637316 -1.531289
  H 5.149470 -0.051993 -0.070028
  H 4.871744 -2.402801 -3.621715
  H 4.874125 -0.795861 -4.263585
  H 7.100325 -0.592383 -1.413940
 26
 81.008562
  C 0.991913 0.135539 0.393468
  C 2.453643 0.156500 0.444811
  C 3.192756 0.631655 1.623976
  C 2.378875 1.114175 2.822268
  C 3.306161 1.567264 3.945928
  C 3.128869 -0.300969 -0.692465
  C 4.477091 -0.352482 -0.820287
  C 5.135856 -0.942836 -2.298146
  C 4.519210 -1.409825 -3.470713
  H 3.441773 -1.376340 -3.391104
  O 6.900842 -0.949022 -2.308653
  H 0.528479 0.500910 1.300981
  H 0.642587 -0.880865 0.201633
  H 0.642213 0.735267 -0.449099
  H 3.858417 1.444784 1.310629
  H 3.858898 -0.171210 1.961569
  H 1.743318 0.310442 3.197115
  H 1.742935 1.952931 2.535364
  H 3.943231 0.750532 4.279292
  H 2.727424 1.911424 4.799558
  H 3.942117 2.387367 3.619585
  H 2.515991 -0.630870 -1.514071
  H 5.205134 -0.059516 -0.087896
  H 4.861000 -2.434964 -3.689252
  H 4.863344 -0.817647 -4.334269
  H 7.177069 -0.604765 -1.441762
 26
 117.392493
  C 0.964541 0.141876 0.409811
  C 2.434550 0.166425 0.469533
  C 3.175198 0.644811 1.656434
  C 2.360403 1.127489 2.855477
  C 3.287745 1.580949 3.979441
  C 3.119111 -0.292709 -0.672033
  C 4.462262 -0.340203 -0.789574
  C 5.132094 -0.969592 -2.365090
  C 4.524507 -1.438016 -3.542056
  H 3.436620 -1.402056 -3.456889
  O 7.055813 -0.970087 -2.358925
  H 0.494150 0.506172 1.314784
  H 0.618273 -0.874991 0.213870
  H 0.617647 0.738919 -0.436001
  H 3.840941 1.457893 1.343855
  H 3.841781 -0.157320 1.994485
  H 1.725223 0.323627 3.230581
  H 1.724408 1.966370 2.568714
  H 3.924613 0.764829 4.312872
  H 2.709192 1.924879 4.833012
  H 3.923447 2.401166 3.653337
  H 2.506903 -0.625149 -1.499987
  H 5.207546 -0.057364 -0.082321
  H 4.864347 -2.455908 -3.762581
  H 4.867196 -0.852180 -4.402164
  H 7.286747 -0.631214 -1.504367
 26
 110.622220
  C 0.790803 0.305334 0.481584
  C 2.262408 0.221142 0.383764
  C 3.140257 0.589056 1.510047
  C 2.479778 1.078651 2.790182
  C 3.530412 1.405739 3.854762
  C 2.779300 -0.238360 -0.801014
  C 4.177757 -0.363051 -1.086198
  C 4.665340 -0.919482 -2.183757
  C 4.659226 -1.575027 -3.408299
  H 3.621030 -1.755651 -3.698896
  O 7.314306 -0.671256 -1.825466
  H 0.442389 0.668520 1.448565
  H 0.348980 -0.664774 0.275569
  H 0.408535 0.954307 -0.305598
  H 3.827362 1.373935 1.155127
  H 3.769890 -0.274127 1.750327
  H 1.809154 0.318612 3.187368
  H 1.888200 1.972703 2.590401
  H 4.122548 0.525651 4.105030
  H 3.052248 1.757008 4.763401
  H 4.206299 2.185305 3.511396
  H 2.094759 -0.540090 -1.586890
  H 4.840790 -0.000703 -0.318560
  H 5.182409 -2.537514 -3.354024
  H 5.154261 -0.993855 -4.189058
  H 7.441295 -0.130253 -1.055026
 26
 106.357912
  C 0.707182 0.506555 0.533251
  C 2.162820 0.302063 0.364119
  C 3.125374 0.571296 1.462951
  C 2.559100 1.059955 2.792434
  C 3.676507 1.275058 3.808708
  C 2.589168 -0.154156 -0.853605
  C 3.958695 -0.425087 -1.186535
  C 4.449822 -0.930176 -2.270533
  C 4.835314 -1.608342 -3.396054
  H 3.913802 -1.893333 -3.929850
  O 7.045216 -0.732724 -1.647356
  H 0.442647 0.862406 1.520924
  H 0.175545 -0.425503 0.340484
  H 0.344200 1.218837 -0.207931
  H 3.849460 1.316812 1.113184
  H 3.699951 -0.341881 1.656570
  H 1.857410 0.327704 3.196524
  H 2.026022 2.002515 2.654092
  H 4.216540 0.349854 3.998298
  H 3.266976 1.623167 4.753653
  H 4.386509 2.020839 3.457279
  H 1.861893 -0.346560 -1.627653
  H 4.701172 -0.164716 -0.433722
  H 5.357758 -2.536467 -3.147983
  H 5.435246 -0.997434 -4.073309
  H 7.389198 -0.233778 -0.904473
