 29
 0.000000
  H 1.544518 0.062058 0.035909
  C 2.621004 0.065628 -0.027375
  C 3.334727 -0.008892 1.293354
  C 2.393329 -0.076538 2.492093
  C 3.165286 -0.150589 3.804479
  C 3.225920 0.132949 -1.220431
  C 2.476039 0.206638 -2.526366
  C 0.952513 0.202725 -2.456982
  C 0.345299 0.281561 -3.854163
  C 4.676390 0.139273 -1.332446
  C 5.385907 0.202898 -2.460147
  O 6.741867 0.206185 -2.518357
  H 3.980534 0.868057 1.410478
  H 3.980538 -0.893451 1.311080
  H 1.751549 -0.956549 2.407255
  H 1.751543 0.807425 2.506796
  H 3.797484 -1.035926 3.830623
  H 2.478199 -0.198109 4.646544
  H 3.797479 0.726185 3.930053
  H 2.790431 -0.638256 -3.147512
  H 2.790431 1.116049 -3.048525
  H 0.601643 1.057114 -1.875008
  H 0.601645 -0.711706 -1.974818
  H 0.656032 1.193652 -4.359406
  H -0.740921 0.278227 -3.795071
  H 0.656031 -0.567904 -4.458802
  H 5.233888 0.086976 -0.405576
  H 4.970801 0.258949 -3.453517
  H 7.104392 0.155731 -1.624121
 29
 13.288216
  H 1.513186 0.057549 0.115830
  C 2.586344 0.061209 0.050947
  C 3.307959 -0.012533 1.357880
  C 2.369842 -0.080301 2.558775
  C 3.145186 -0.154224 3.868892
  C 3.255084 0.136770 -1.288132
  C 2.492058 0.209574 -2.578397
  C 0.970074 0.204117 -2.481632
  C 0.337007 0.282314 -3.867496
  C 4.691363 0.142936 -1.397355
  C 5.402444 0.206711 -2.527721
  O 6.758426 0.209981 -2.585643
  H 3.954791 0.864834 1.471031
  H 3.954796 -0.897061 1.371611
  H 1.727829 -0.960358 2.474717
  H 1.727823 0.803620 2.574258
  H 3.777679 -1.039433 3.892902
  H 2.460673 -0.201860 4.713005
  H 3.777679 0.722667 3.992331
  H 2.798135 -0.635506 -3.203608
  H 2.798135 1.119625 -3.104572
  H 0.630126 1.057765 -1.892355
  H 0.630127 -0.710404 -1.992127
  H 0.637845 1.194734 -4.378209
  H -0.747976 0.277881 -3.788941
  H 0.637845 -0.566864 -4.477608
  H 5.247641 0.090517 -0.468331
  H 4.986576 0.262748 -3.520831
  H 7.121098 0.159528 -1.691419
 29
 38.069722
  H 1.478436 0.058965 0.090797
  C 2.547968 0.060011 0.072203
  C 3.300392 -0.011796 1.344806
  C 2.359251 -0.079732 2.548702
  C 3.132749 -0.153740 3.860295
  C 3.298708 0.143297 -1.403774
  C 2.487539 0.213918 -2.655345
  C 0.971657 0.203428 -2.469430
  C 0.251444 0.279180 -3.811955
  C 4.717746 0.143884 -1.414144
  C 5.498365 0.205352 -2.503608
  O 6.855234 0.203786 -2.475851
  H 3.955878 0.865341 1.444634
  H 3.955879 -0.894592 1.345325
  H 1.717242 -0.958566 2.454820
  H 1.717240 0.804080 2.554284
  H 3.765812 -1.038591 3.882692
  H 2.448797 -0.201402 4.704984
  H 3.765801 0.722966 3.982088
  H 2.766699 -0.632853 -3.294821
  H 2.766699 1.127253 -3.195508
  H 0.676940 1.053897 -1.852965
  H 0.676939 -0.710995 -1.952547
  H 0.518563 1.192297 -4.339800
  H -0.826677 0.271064 -3.668117
  H 0.518565 -0.568768 -4.439171
  H 5.213499 0.089483 -0.450013
  H 5.137688 0.262512 -3.516619
  H 7.161078 0.152189 -1.561367
 29
 66.393259
  H 1.424677 0.055194 0.157598
  C 2.495050 0.055618 0.150032
  C 3.269795 -0.015549 1.411265
  C 2.345101 -0.084129 2.626597
  C 3.133525 -0.157548 3.927785
  C 3.312755 0.147056 -1.470410
  C 2.491798 0.216920 -2.708550
  C 0.979777 0.205643 -2.508693
  C 0.247684 0.280909 -3.842592
  C 4.721499 0.146612 -1.462491
  C 5.512175 0.208332 -2.556402
  O 6.871201 0.206543 -2.524684
  H 3.925261 0.859136 1.505172
  H 3.925270 -0.895249 1.406178
  H 1.702935 -0.963270 2.540376
  H 1.702932 0.799127 2.639824
  H 3.767331 -1.041987 3.942024
  H 2.460250 -0.205672 4.780658
  H 3.767329 0.719680 4.041424
  H 2.765783 -0.628559 -3.350682
  H 2.765782 1.129265 -3.251492
  H 0.691223 1.056264 -1.888989
  H 0.691226 -0.709287 -1.988616
  H 0.509686 1.194329 -4.372748
  H -0.828907 0.272233 -3.688845
  H 0.509688 -0.567078 -4.472140
  H 5.208035 0.092138 -0.497078
  H 5.150003 0.265583 -3.571026
  H 7.174180 0.154842 -1.608378
 29
 94.050177
  H 1.377256 0.051927 0.215515
  C 2.446023 0.051580 0.221607
  C 3.238582 -0.018314 1.460290
  C 2.329458 -0.087762 2.690983
  C 3.136650 -0.160587 3.981655
  C 3.333735 0.151082 -1.541760
  C 2.496748 0.220129 -2.765417
  C 0.986591 0.207405 -2.539919
  C 0.229821 0.281971 -3.861400
  C 4.731832 0.149136 -1.507228
  C 5.534313 0.210175 -2.589072
  O 6.890562 0.207392 -2.539726
  H 3.896768 0.857598 1.545939
  H 3.896774 -0.898302 1.446859
  H 1.686694 -0.967685 2.613464
  H 1.686692 0.795292 2.712943
  H 3.771384 -1.044673 3.986715
  H 2.475543 -0.209253 4.844134
  H 3.771378 0.717316 4.086133
  H 2.762310 -0.626150 -3.413097
  H 2.762310 1.133892 -3.313783
  H 0.709355 1.057514 -1.914498
  H 0.709352 -0.707669 -2.014094
  H 0.481485 1.195702 -4.396172
  H -0.844023 0.272232 -3.688759
  H 0.481484 -0.565806 -4.495570
  H 5.205396 0.094206 -0.533733
  H 5.181572 0.267463 -3.604337
  H 7.180263 0.155535 -1.620647
 29
 118.418468
  H 1.320049 0.048718 0.272357
  C 2.389309 0.047597 0.292175
  C 3.200914 -0.021441 1.515675
  C 2.309578 -0.091711 2.760964
  C 3.136126 -0.163798 4.038570
  C 3.349232 0.155102 -1.613010
  C 2.498643 0.223247 -2.820693
  C 0.993745 0.209015 -2.568462
  C 0.212639 0.282710 -3.874458
  C 4.740585 0.151731 -1.553237
  C 5.571154 0.213014 -2.639377
  O 6.932028 0.209114 -2.570222
  H 3.860636 0.854124 1.593288
  H 3.860648 -0.900184 1.494299
  H 1.666867 -0.971860 2.692719
  H 1.666865 0.790523 2.792164
  H 3.771465 -1.047227 4.033805
  H 2.488216 -0.213012 4.910778
  H 3.771462 0.714564 4.133211
  H 2.754536 -0.622710 -3.472622
  H 2.754535 1.137168 -3.373315
  H 0.728641 1.058503 -1.937284
  H 0.728640 -0.706087 -2.036851
  H 0.453282 1.196661 -4.413769
  H -0.857546 0.271834 -3.681689
  H 0.453282 -0.564778 -4.513166
  H 5.199237 0.096420 -0.572967
  H 5.228940 0.270622 -3.660308
  H 7.208630 0.156917 -1.645120
 29
 139.174122
  H 1.273681 0.045550 0.328489
  C 2.341477 0.043759 0.360162
  C 3.168245 -0.024261 1.565637
  C 2.295092 -0.095396 2.826270
  C 3.142431 -0.166742 4.090755
  C 3.373725 0.159263 -1.686782
  C 2.508497 0.226591 -2.879999
  C 1.006920 0.210746 -2.599164
  C 0.199180 0.283559 -3.889548
  C 4.745766 0.154582 -1.603788
  C 5.577777 0.214299 -2.662171
  O 6.930403 0.209207 -2.571824
  H 3.829441 0.851495 1.634411
  H 3.829448 -0.902195 1.535457
  H 1.652172 -0.976321 2.767587
  H 1.652171 0.786536 2.867057
  H 3.778465 -1.049764 4.075831
  H 2.508278 -0.216530 4.973138
  H 3.778459 0.712351 4.175254
  H 2.754240 -0.620018 -3.536605
  H 2.754242 1.141696 -3.437202
  H 0.754583 1.059855 -1.961828
  H 0.754583 -0.704664 -2.061394
  H 0.427859 1.197892 -4.433704
  H -0.867068 0.271470 -3.675255
  H 0.427856 -0.563759 -4.533112
  H 5.191447 0.098999 -0.618707
  H 5.247489 0.271928 -3.683477
  H 7.190132 0.156923 -1.645175
 29
 155.505055
  H 1.190548 0.045437 0.330427
  C 2.248844 0.041701 0.396525
  C 3.103231 -0.023980 1.560570
  C 2.284647 -0.097145 2.857262
  C 3.187624 -0.166251 4.082071
  C 3.383681 0.164336 -1.776692
  C 2.500028 0.230021 -2.940756
  C 1.007860 0.211289 -2.608773
  C 0.152430 0.282388 -3.868740
  C 4.741608 0.155016 -1.611504
  C 5.653858 0.212900 -2.637343
  O 7.004946 0.203009 -2.461944
  H 3.766090 0.853335 1.606328
  H 3.766102 -0.900882 1.507341
  H 1.642132 -0.980038 2.824804
  H 1.642133 0.783795 2.924330
  H 3.824555 -1.047873 4.039273
  H 2.592316 -0.217542 4.991109
  H 3.824567 0.714602 4.138717
  H 2.724932 -0.617721 -3.603665
  H 2.724937 1.146965 -3.504093
  H 0.780451 1.058881 -1.960656
  H 0.780454 -0.703816 -2.060130
  H 0.358476 1.197227 -4.421342
  H -0.905139 0.268043 -3.614459
  H 0.358479 -0.564506 -4.520776
  H 5.135274 0.097883 -0.598971
  H 5.377460 0.271511 -3.676040
  H 7.204581 0.149803 -1.519015
 29
 168.988260
  H 1.126020 0.041227 0.404995
  C 2.194070 0.037480 0.471291
  C 3.067327 -0.028197 1.635301
  C 2.265748 -0.102358 2.949673
  C 3.187244 -0.170700 4.160975
  C 3.398992 0.168182 -1.844854
  C 2.505558 0.233438 -3.001352
  C 1.016482 0.213642 -2.650503
  C 0.146090 0.284031 -3.897886
  C 4.745438 0.158441 -1.672216
  C 5.669062 0.216133 -2.694640
  O 7.019705 0.205637 -2.508477
  H 3.731161 0.850141 1.672817
  H 3.731166 -0.905175 1.573773
  H 1.623876 -0.985304 2.926978
  H 1.623876 0.777534 3.026444
  H 3.823997 -1.051530 4.108689
  H 2.605690 -0.222487 5.078839
  H 3.823990 0.710411 4.208102
  H 2.722786 -0.615272 -3.667078
  H 2.722788 1.151655 -3.567377
  H 0.797074 1.060962 -1.999085
  H 0.797071 -0.701584 -2.098533
  H 0.344299 1.198777 -4.452891
  H -0.907609 0.268912 -3.629908
  H 0.344292 -0.562464 -4.552267
  H 5.130891 0.101365 -0.660688
  H 5.399734 0.274831 -3.734867
  H 7.211567 0.152301 -1.563233
 29
 178.617768
  H 1.078544 0.034888 0.517304
  C 2.150564 0.032348 0.562112
  C 3.011112 -0.032970 1.719805
  C 2.234600 -0.108208 3.053324
  C 3.177849 -0.175700 4.249601
  C 3.414154 0.171455 -1.902823
  C 2.518388 0.236401 -3.053825
  C 1.032422 0.215763 -2.688019
  C 0.149233 0.285699 -3.927413
  C 4.763986 0.162536 -1.744826
  C 5.681780 0.220655 -2.774784
  O 7.023245 0.210805 -2.600014
  H 3.671284 0.841442 1.744504
  H 3.671292 -0.904613 1.645985
  H 1.593392 -0.991971 3.042755
  H 1.593390 0.771135 3.142233
  H 3.814691 -1.056187 4.186233
  H 2.612982 -0.228094 5.178241
  H 3.814699 0.706333 4.285676
  H 2.729616 -0.612187 -3.720558
  H 2.729617 1.154602 -3.620856
  H 0.819193 1.062352 -2.034075
  H 0.819193 -0.699007 -2.133469
  H 0.341259 1.200869 -4.484731
  H -0.902088 0.269977 -3.648719
  H 0.341257 -0.560977 -4.584159
  H 5.159491 0.105537 -0.734711
  H 5.405172 0.279243 -3.812980
  H 7.221587 0.157574 -1.656669
 29
 181.892791
  H 1.023781 0.027257 0.652570
  C 2.110627 0.026877 0.658985
  C 2.950417 -0.039462 1.834837
  C 2.200149 -0.115997 3.191402
  C 3.163753 -0.182647 4.372727
  C 3.425298 0.174592 -1.958451
  C 2.535711 0.239739 -3.113046
  C 1.051510 0.218657 -2.739294
  C 0.162132 0.288331 -3.974024
  C 4.779720 0.167511 -1.833137
  C 5.680699 0.226629 -2.880643
  O 7.020626 0.218432 -2.734958
  H 3.609911 0.834562 1.845147
  H 3.609906 -0.909094 1.746770
  H 1.559782 -1.000616 3.192647
  H 1.559780 0.762872 3.292144
  H 3.800099 -1.062693 4.298765
  H 2.616072 -0.235621 5.311704
  H 3.800093 0.700124 4.398220
  H 2.744716 -0.610047 -3.780005
  H 2.744724 1.159153 -3.680168
  H 0.842958 1.064080 -2.083290
  H 0.842951 -0.695196 -2.182557
  H 0.350417 1.203669 -4.532303
  H -0.887454 0.272291 -3.689806
  H 0.350406 -0.558391 -4.631715
  H 5.195107 0.110940 -0.830651
  H 5.383430 0.285044 -3.915631
  H 7.241251 0.165280 -1.793123
 29
 178.434952
  H 0.979071 0.016178 0.831662
  C 2.074474 0.019355 0.765839
  C 2.870830 -0.048067 1.975245
  C 2.158426 -0.124765 3.343836
  C 3.146228 -0.189334 4.502896
  C 3.431778 0.177178 -2.007965
  C 2.553740 0.243966 -3.183002
  C 1.071058 0.221690 -2.795285
  C 0.168088 0.291307 -4.020004
  C 4.820015 0.173453 -1.931419
  C 5.684150 0.232533 -2.986415
  O 7.026133 0.226457 -2.888309
  H 3.535010 0.828463 1.964168
  H 3.535445 -0.917543 1.866545
  H 1.518314 -1.010946 3.360047
  H 1.517882 0.753798 3.458726
  H 3.782683 -1.068401 4.414530
  H 2.621824 -0.242749 5.455187
  H 3.782202 0.694423 4.513143
  H 2.761831 -0.602766 -3.854072
  H 2.761626 1.161448 -3.753607
  H 0.870035 1.065370 -2.135658
  H 0.870271 -0.691434 -2.235704
  H 0.350514 1.206797 -4.580131
  H -0.879303 0.274494 -3.726408
  H 0.350691 -0.554702 -4.680407
  H 5.264926 0.117781 -0.938933
  H 5.349734 0.289907 -4.013984
  H 7.286724 0.174036 -1.952176
 29
 170.011336
  H 0.992804 -0.069454 1.094279
  C 2.083672 -0.039507 0.913475
  C 2.827403 -0.078512 2.161928
  C 2.101945 -0.155190 3.510011
  C 3.077873 -0.185839 4.680342
  C 3.448689 0.151642 -1.976519
  C 2.615653 0.311399 -3.188403
  C 1.122291 0.231513 -2.866559
  C 0.263958 0.316175 -4.122048
  C 4.835284 0.307612 -2.080632
  C 5.587683 0.176612 -3.209735
  O 6.931466 0.083186 -3.246136
  H 3.486994 0.800293 2.122025
  H 3.525956 -0.919408 2.044453
  H 1.479962 -1.053930 3.530826
  H 1.440091 0.709107 3.610186
  H 3.734522 -1.051714 4.608917
  H 2.543756 -0.240696 5.626086
  H 3.694293 0.711587 4.688720
  H 2.875478 -0.516155 -3.857046
  H 2.825552 1.239713 -3.739451
  H 0.866543 1.044644 -2.186718
  H 0.928513 -0.703862 -2.341400
  H 0.439473 1.254942 -4.645261
  H -0.792478 0.259301 -3.870531
  H 0.496659 -0.501252 -4.802534
  H 5.374633 0.394501 -1.139471
  H 5.155432 0.007354 -4.186489
  H 7.300295 0.233861 -2.363971
