 20
 0.000000
  C 0.973877 0.186606 0.515290
  C 2.420095 0.106663 0.317642
  H 3.065992 0.430768 1.123583
  C 2.987893 -0.361070 -0.845708
  C 4.373016 -0.426389 -1.009467
  C 5.111678 -0.865393 -2.105647
  C 4.662357 -1.391557 -3.418492
  C 3.185303 -1.523635 -3.746738
  H 3.095233 -1.926622 -4.752825
  O 6.420640 -0.837516 -2.037950
  H 0.711904 0.579255 1.491352
  H 0.519095 -0.797965 0.384500
  H 0.519752 0.806890 -0.260885
  H 2.335189 -0.680609 -1.640606
  H 4.964812 -0.087205 -0.165130
  H 5.146426 -2.368744 -3.529990
  H 5.145801 -0.761475 -4.174013
  H 2.685121 -0.559663 -3.734591
  H 2.685832 -2.213028 -3.072430
  H 6.790553 -0.502139 -1.198512
 20
 0.555589
  C 0.977196 0.172271 0.506021
  C 2.417341 0.188658 0.249793
  H 3.049283 0.756818 0.919295
  C 2.991770 -0.485275 -0.801898
  C 4.372018 -0.458942 -1.006363
  C 5.123832 -0.922548 -2.087358
  C 4.668635 -1.371367 -3.427462
  C 3.185483 -1.423597 -3.756656
  H 3.074326 -1.720061 -4.795990
  O 6.434319 -0.931677 -2.001495
  H 0.703526 0.769620 1.368191
  H 0.633146 -0.855258 0.646764
  H 0.429539 0.529234 -0.369269
  H 2.339282 -1.047978 -1.447279
  H 4.948135 -0.069766 -0.170686
  H 5.116505 -2.356483 -3.598518
  H 5.173551 -0.711876 -4.142510
  H 2.716556 -0.451797 -3.634812
  H 2.668314 -2.162373 -3.153564
  H 6.799300 -0.636213 -1.146433
 20
 2.050174
  C 0.970300 0.144870 0.462595
  C 2.398054 0.250257 0.149792
  H 2.973612 1.028980 0.636978
  C 3.023308 -0.572140 -0.753911
  C 4.406870 -0.510041 -0.974032
  C 5.144690 -0.969411 -2.067538
  C 4.656882 -1.334162 -3.421376
  C 3.166620 -1.325228 -3.713632
  H 3.021839 -1.510753 -4.773207
  O 6.454358 -1.003846 -2.002021
  H 0.644663 0.901658 1.172071
  H 0.749063 -0.848955 0.859478
  H 0.370237 0.220841 -0.448416
  H 2.425340 -1.314795 -1.259992
  H 4.985408 -0.106078 -0.147173
  H 5.071521 -2.322423 -3.655021
  H 5.167594 -0.650915 -4.109245
  H 2.720659 -0.363497 -3.475858
  H 2.649284 -2.111282 -3.176049
  H 6.833716 -0.782302 -1.130106
 20
 4.875198
  C 0.967965 0.141280 0.368603
  C 2.391575 0.269104 0.048111
  H 2.910298 1.162955 0.376507
  C 3.071302 -0.658456 -0.690326
  C 4.464896 -0.597262 -0.917239
  C 5.169782 -0.984691 -2.049609
  C 4.628339 -1.255329 -3.406531
  C 3.122215 -1.284252 -3.617677
  H 2.921984 -1.400488 -4.677663
  O 6.483959 -0.998547 -2.037779
  H 0.611844 0.962193 0.979671
  H 0.782622 -0.807483 0.876551
  H 0.367311 0.096690 -0.548048
  H 2.518436 -1.503811 -1.073549
  H 5.057880 -0.290888 -0.061825
  H 5.064215 -2.203354 -3.737614
  H 5.077611 -0.500544 -4.064541
  H 2.657428 -0.359091 -3.285816
  H 2.662667 -2.122804 -3.105529
  H 6.893628 -0.830740 -1.166764
 20
 8.829565
  C 0.962421 0.097225 0.281711
  C 2.378771 0.265173 -0.078809
  H 2.811151 1.250281 0.024277
  C 3.131935 -0.734007 -0.603252
  C 4.526698 -0.647497 -0.878246
  C 5.197524 -0.973237 -2.043244
  C 4.594992 -1.196551 -3.384964
  C 3.082142 -1.179274 -3.522662
  H 2.824194 -1.348684 -4.564599
  O 6.510934 -1.020951 -2.074173
  H 0.550373 0.994697 0.730557
  H 0.842093 -0.748251 0.959276
  H 0.366802 -0.148204 -0.599681
  H 2.642832 -1.680262 -0.812855
  H 5.130621 -0.386722 -0.013116
  H 4.987542 -2.153832 -3.752562
  H 5.036947 -0.444499 -4.045992
  H 2.669192 -0.220468 -3.225518
  H 2.617948 -1.961767 -2.938152
  H 6.950948 -0.914010 -1.210834
 20
 13.143766
  C 0.963767 0.077676 0.290576
  C 2.345115 0.278711 -0.199832
  H 2.693581 1.287835 -0.284383
  C 3.143585 -0.746210 -0.590086
  C 4.541670 -0.682153 -0.880875
  C 5.213791 -1.005364 -2.043097
  C 4.595966 -1.192242 -3.380850
  C 3.082937 -1.099466 -3.492328
  H 2.800787 -1.195923 -4.538972
  O 6.526865 -1.049166 -2.082334
  H 0.504106 1.015152 0.583609
  H 0.949236 -0.619629 1.125026
  H 0.338669 -0.383103 -0.480877
  H 2.681266 -1.727010 -0.666490
  H 5.118862 -0.530955 0.028689
  H 4.923715 -2.183393 -3.750546
  H 5.071917 -0.468809 -4.043643
  H 2.716285 -0.139702 -3.122534
  H 2.592675 -1.893909 -2.954031
  H 6.973416 -0.878598 -1.229859
 20
 21.037716
  C 0.971512 0.103681 0.322391
  C 2.305638 0.283118 -0.270555
  H 2.619553 1.290354 -0.515670
  C 3.135065 -0.751308 -0.541278
  C 4.504587 -0.664990 -0.954944
  C 5.221527 -1.001701 -2.059748
  C 4.626738 -1.114751 -3.428116
  C 3.112489 -1.102959 -3.505653
  H 2.809100 -1.155578 -4.547862
  O 6.529112 -1.167891 -2.050225
  H 0.516683 1.053160 0.584042
  H 1.029571 -0.538958 1.201451
  H 0.303094 -0.415055 -0.372427
  H 2.709801 -1.749163 -0.451300
  H 4.942636 -0.541307 0.040253
  H 5.004683 -2.051885 -3.846365
  H 5.060851 -0.319082 -4.044687
  H 2.691370 -0.196029 -3.091384
  H 2.694266 -1.959801 -2.974946
  H 6.935325 -1.122676 -1.167055
 20
 31.047018
  C 0.958531 0.056084 0.265048
  C 2.296189 0.234958 -0.316981
  H 2.598982 1.228786 -0.608734
  C 3.173134 -0.791005 -0.447399
  C 4.511559 -0.734943 -0.965362
  C 5.230002 -1.038605 -2.054149
  C 4.606398 -1.159676 -3.419549
  C 3.115658 -0.916219 -3.492088
  H 2.781880 -1.059478 -4.510085
  O 6.532842 -1.132615 -2.080256
  H 0.422954 0.997249 0.339422
  H 1.026536 -0.420071 1.250855
  H 0.356655 -0.638339 -0.334701
  H 2.789078 -1.797347 -0.250300
  H 4.876737 -0.601473 0.069483
  H 4.830607 -2.184531 -3.752284
  H 5.133151 -0.469787 -4.068670
  H 2.865681 0.105973 -3.193778
  H 2.571745 -1.622096 -2.862462
  H 6.949212 -1.153295 -1.198733
 20
 45.217719
  C 1.007942 0.197649 0.457023
  C 2.285936 0.296805 -0.236012
  H 2.620434 1.266986 -0.581836
  C 3.078446 -0.818933 -0.451622
  C 4.335118 -0.834001 -1.089615
  C 5.178977 -1.035361 -2.075489
  C 4.691899 -1.119741 -3.505537
  C 3.185486 -1.104440 -3.670000
  H 2.941773 -1.135711 -4.726710
  O 6.507966 -1.147757 -1.987857
  H 0.556015 1.171876 0.617965
  H 1.126036 -0.319325 1.412448
  H 0.308215 -0.422795 -0.110975
  H 2.627956 -1.778968 -0.223468
  H 4.459874 -0.776589 0.083520
  H 5.112799 -2.036175 -3.916919
  H 5.147415 -0.271519 -4.048913
  H 2.754914 -0.199688 -3.249125
  H 2.735827 -1.968285 -3.195066
  H 6.851670 -1.021874 -1.089244
 20
 54.140706
  C 1.029696 0.239584 0.509997
  C 2.334827 0.317116 -0.143256
  H 2.718960 1.271692 -0.466417
  C 3.121155 -0.854118 -0.357300
  C 4.255804 -0.884742 -1.187848
  C 5.158919 -1.006521 -2.116513
  C 4.709224 -1.128486 -3.563672
  C 3.203305 -1.146512 -3.769997
  H 2.989654 -1.215636 -4.832847
  O 6.493888 -1.020447 -1.999013
  H 0.584780 1.219674 0.643955
  H 1.105844 -0.259797 1.479149
  H 0.343523 -0.381283 -0.073172
  H 2.607173 -1.798052 -0.171605
  H 4.103008 -0.842767 0.303595
  H 5.161787 -2.045030 -3.946129
  H 5.160828 -0.289961 -4.097935
  H 2.745592 -0.237169 -3.390307
  H 2.752673 -2.002952 -3.277836
  H 6.811155 -0.939888 -1.086210
 20
 53.376449
  C 1.050047 0.275477 0.498859
  C 2.373343 0.321572 -0.110525
  H 2.802926 1.267501 -0.400305
  C 3.140409 -0.882813 -0.321382
  C 4.245648 -0.915231 -1.197075
  C 5.145163 -0.985296 -2.127727
  C 4.696047 -1.114994 -3.577941
  C 3.191717 -1.189725 -3.781214
  H 2.978665 -1.263970 -4.843931
  O 6.483840 -0.948863 -2.018758
  H 0.642331 1.267162 0.663894
  H 1.068688 -0.273311 1.443771
  H 0.358462 -0.287755 -0.135137
  H 2.583224 -1.815250 -0.208870
  H 3.932779 -0.895951 0.487542
  H 5.183513 -2.011186 -3.967190
  H 5.114459 -0.254409 -4.103821
  H 2.701103 -0.299278 -3.398055
  H 2.775349 -2.064460 -3.290681
  H 6.797475 -0.864282 -1.105374
 20
 52.045496
  C 1.071237 0.294690 0.497176
  C 2.386648 0.321669 -0.121643
  H 2.821172 1.259519 -0.431665
  C 3.163617 -0.895220 -0.300671
  C 4.262900 -0.927704 -1.182998
  C 5.144809 -0.966808 -2.129490
  C 4.687768 -1.106122 -3.578589
  C 3.183632 -1.205919 -3.771564
  H 2.964802 -1.285850 -4.833206
  O 6.487617 -0.910890 -2.036115
  H 0.694057 1.291306 0.701862
  H 1.069139 -0.297074 1.414377
  H 0.359871 -0.218501 -0.159569
  H 2.571973 -1.815801 -0.285371
  H 3.741562 -0.932122 0.650474
  H 5.188314 -1.992886 -3.971176
  H 5.088492 -0.236725 -4.104069
  H 2.681618 -0.322640 -3.387075
  H 2.785610 -2.086822 -3.277560
  H 6.803122 -0.810438 -1.125045
 20
 51.610243
  C 1.089282 0.318703 0.536846
  C 2.389274 0.326926 -0.114134
  H 2.819975 1.259012 -0.446091
  C 3.145667 -0.898877 -0.314068
  C 4.250816 -0.924053 -1.189956
  C 5.138615 -0.946890 -2.131191
  C 4.697579 -1.109183 -3.582792
  C 3.198054 -1.246495 -3.787577
  H 2.990439 -1.341440 -4.850184
  O 6.479684 -0.859913 -2.027550
  H 0.768365 1.315270 0.823279
  H 1.069629 -0.346707 1.400818
  H 0.337430 -0.093331 -0.146669
  H 2.524747 -1.801094 -0.357214
  H 3.680949 -1.033114 0.651016
  H 5.222763 -1.987016 -3.963877
  H 5.081820 -0.234922 -4.112409
  H 2.672173 -0.371884 -3.415984
  H 2.816568 -2.132414 -3.288729
  H 6.784130 -0.736915 -1.115451
