 9
 0.000000
  C 1.049957 -0.111630 -0.038610
  C 2.548360 -0.144219 -0.038807
  C 3.250562 -1.260285 -0.045497
  H 4.326080 -1.272806 -0.045571
  H 0.689513 0.914708 -0.032461
  H 0.653877 -0.613294 0.842403
  H 0.653876 -0.602704 -0.925569
  H 3.052017 0.812964 -0.033073
  H 2.748964 -2.214885 -0.051216
 9
 4.075242
  C 0.988066 -0.096088 -0.031171
  C 2.601506 -0.142855 -0.045494
  C 3.275544 -1.273742 -0.042119
  H 4.351014 -1.290123 -0.037786
  H 0.658152 0.929212 -0.031635
  H 0.614242 -0.622680 0.836910
  H 0.617218 -0.582309 -0.933008
  H 3.083553 0.814478 -0.033482
  H 2.784900 -2.227871 -0.050615
 9
 17.318900
  C 0.900349 -0.089082 -0.038148
  C 2.673082 -0.141599 -0.045430
  C 3.316370 -1.283204 -0.042236
  H 4.389571 -1.321590 -0.035519
  H 0.610369 0.943952 -0.026566
  H 0.572028 -0.617692 0.845694
  H 0.566593 -0.582595 -0.941493
  H 3.135398 0.825639 -0.033868
  H 2.808677 -2.226217 -0.051527
 9
 34.715747
  C 0.814056 -0.077645 -0.038638
  C 2.745717 -0.145631 -0.045236
  C 3.371253 -1.294087 -0.042147
  H 4.450271 -1.346378 -0.035975
  H 0.542781 0.962220 -0.025831
  H 0.497093 -0.604937 0.847952
  H 0.491209 -0.571203 -0.943251
  H 3.204743 0.821182 -0.034248
  H 2.848983 -2.236129 -0.051181
 9
 52.894008
  C 0.726344 -0.066546 -0.039390
  C 2.816890 -0.149766 -0.045782
  C 3.422208 -1.305782 -0.042301
  H 4.499979 -1.373950 -0.034817
  H 0.479672 0.978147 -0.024954
  H 0.428096 -0.594144 0.852351
  H 0.419657 -0.561544 -0.946705
  H 3.269749 0.820334 -0.034734
  H 2.888681 -2.238907 -0.051612
 9
 69.795118
  C 0.637205 -0.054444 -0.039891
  C 2.886577 -0.153383 -0.046288
  C 3.472104 -1.316388 -0.042358
  H 4.551127 -1.400898 -0.033613
  H 0.416290 0.993700 -0.024218
  H 0.359411 -0.582786 0.856781
  H 0.348194 -0.551208 -0.950127
  H 3.331125 0.818213 -0.035175
  H 2.925995 -2.243470 -0.052086
 9
 84.529170
  C 0.546716 -0.042318 -0.040149
  C 2.954828 -0.158014 -0.046764
  C 3.521436 -1.327441 -0.042377
  H 4.600267 -1.428707 -0.032403
  H 0.351213 1.010296 -0.023578
  H 0.289685 -0.571550 0.860761
  H 0.275635 -0.540893 -0.953051
  H 3.392062 0.817147 -0.035584
  H 2.963948 -2.247073 -0.052535
 9
 96.837130
  C 0.454852 -0.029169 -0.040227
  C 3.021613 -0.162705 -0.047185
  C 3.570756 -1.337967 -0.042354
  H 4.649909 -1.456148 -0.031182
  H 0.284176 1.026480 -0.023008
  H 0.218070 -0.559359 0.864416
  H 0.201105 -0.529520 -0.955599
  H 3.451577 0.814480 -0.035983
  H 3.001601 -2.251420 -0.052956
 9
 106.768811
  C 0.361572 -0.015581 -0.040121
  C 3.086877 -0.168190 -0.047570
  C 3.619916 -1.348732 -0.042308
  H 4.698458 -1.483840 -0.029959
  H 0.214498 1.043186 -0.022491
  H 0.143989 -0.546677 0.867563
  H 0.124139 -0.517563 -0.957579
  H 3.510937 0.811609 -0.036375
  H 3.039880 -2.255391 -0.053338
 9
 114.542576
  C 0.266771 -0.001100 -0.039870
  C 3.150511 -0.173960 -0.047919
  C 3.668882 -1.359286 -0.042235
  H 4.746723 -1.511067 -0.028714
  H 0.141998 1.059800 -0.022007
  H 0.067100 -0.533052 0.870355
  H 0.044367 -0.504576 -0.959133
  H 3.569407 0.807371 -0.036767
  H 3.078023 -2.259801 -0.053694
 9
 120.454975
  C 0.170234 0.014004 -0.039480
  C 3.212288 -0.180372 -0.048239
  C 3.717218 -1.370049 -0.042138
  H 4.793731 -1.538060 -0.027465
  H 0.066278 1.076855 -0.021545
  H -0.013006 -0.518709 0.872761
  H -0.038544 -0.490794 -0.960220
  H 3.627265 0.802556 -0.037154
  H 3.116160 -2.264149 -0.054015
 9
 124.828311
  C 0.071641 0.029990 -0.038971
  C 3.271883 -0.187115 -0.048527
  C 3.764515 -1.380783 -0.042011
  H 4.839470 -1.564363 -0.026209
  H -0.012962 1.094165 -0.021088
  H -0.096682 -0.503406 0.874900
  H -0.124943 -0.475985 -0.960955
  H 3.683757 0.796667 -0.037531
  H 3.153510 -2.268871 -0.054303
 9
 127.976680
  C -0.029581 0.046811 -0.038350
  C 3.328712 -0.194327 -0.048782
  C 3.809966 -1.391678 -0.041851
  H 4.882988 -1.590073 -0.024958
  H -0.096259 1.112083 -0.020625
  H -0.184518 -0.487178 0.876795
  H -0.215375 -0.460190 -0.961345
  H 3.738474 0.790199 -0.037892
  H 3.189571 -2.273685 -0.054543
 9
 130.162808
  C -0.134381 0.064745 -0.037626
  C 3.381814 -0.201742 -0.048994
  C 3.852480 -1.402534 -0.041648
  H 4.923412 -1.614951 -0.023705
  H -0.184474 1.130732 -0.020139
  H -0.277405 -0.469758 0.878530
  H -0.310727 -0.443149 -0.961459
  H 3.790202 0.783046 -0.038225
  H 3.223017 -2.278706 -0.054730
