26

C 0.983575 0.134803 0.386678
C 2.460951 0.140195 0.399644
C 3.234683 0.611656 1.573007
C 2.448824 1.099301 2.787116
C 3.394679 1.545572 3.89773
C 3.081586 -0.323379 -0.754571
C 4.457978 -0.411212 -0.973713
C 5.125625 -0.86488 -2.104584
C 4.614873 -1.386164 -3.403838
H 3.5671966601425575 -1.466886698766741 -3.6057244354203277
O 6.450062 -0.866083 -2.10796
H 0.540793 0.503488 1.304712
H 0.617989 -0.878409 0.214488
H 0.617652 0.747296 -0.438466
H 3.892198 1.424605 1.244121
H 3.892433 -0.202713 1.897862
H 1.811281 0.30082 3.17135
H 1.811113 1.941587 2.512242
H 4.030635 0.724689 4.222494
H 2.827282 1.891314 4.758621
H 4.030409 2.363123 3.564277
H 2.42185 -0.64047 -1.543924
H 5.086425 -0.082158 -0.154069
H 5.069535 -2.375263 -3.532497
H 5.070012 -0.760654 -4.180514
H 6.827824 -0.531164 -1.272792
