 25
 0.000000
  C 1.012031 0.116632 0.343368
  C 2.483663 0.129016 0.373924
  C 3.241616 0.602505 1.550640
  C 2.448379 1.088717 2.759393
  C 3.391426 1.536204 3.872282
  C 3.140378 -0.329734 -0.766933
  C 4.527917 -0.400205 -0.943815
  C 5.143362 -0.856301 -2.082089
  C 4.509584 -1.345693 -3.304745
  H 3.427355 -1.336294 -3.283218
  H 6.224471 -0.861070 -2.093544
  H 0.558841 0.483681 1.255581
  H 0.655158 -0.896870 0.150914
  H 0.655069 0.714434 -0.497324
  H 3.907850 1.411008 1.226521
  H 3.907959 -0.205085 1.876657
  H 1.812244 0.288622 3.141644
  H 1.812400 1.930813 2.481208
  H 4.027391 0.716209 4.198292
  H 2.824239 1.882276 4.732745
  H 4.027550 2.353432 3.539812
  H 2.509305 -0.657121 -1.580485
  H 5.165089 -0.075673 -0.135144
  H 4.866483 -2.357858 -3.511327
  H 4.867592 -0.756529 -4.152784
 25
 0.025709
  C 1.008006 0.065585 0.372527
  C 2.478224 0.085774 0.392217
  C 3.237398 0.565117 1.561040
  C 2.446271 1.112388 2.749290
  C 3.393346 1.588348 3.850137
  C 3.131697 -0.351983 -0.758204
  C 4.518930 -0.453581 -0.926691
  C 5.140915 -0.869487 -2.078756
  C 4.516966 -1.286505 -3.334104
  H 3.433927 -1.255546 -3.328766
  H 6.226629 -0.896542 -2.071530
  H 0.557381 0.394238 1.307236
  H 0.654597 -0.936993 0.135157
  H 0.642727 0.698633 -0.440976
  H 3.939158 1.334100 1.226569
  H 3.868365 -0.257087 1.915825
  H 1.793834 0.338834 3.161490
  H 1.826797 1.952538 2.433538
  H 4.017008 0.767360 4.212819
  H 2.826085 1.978696 4.696626
  H 4.047287 2.384749 3.487547
  H 2.500885 -0.629556 -1.589934
  H 5.154868 -0.193711 -0.093743
  H 4.854099 -2.294936 -3.582052
  H 4.898805 -0.665254 -4.145899
 25
 0.086852
  C 1.003870 0.006774 0.397312
  C 2.475322 0.045237 0.409885
  C 3.234349 0.527763 1.580429
  C 2.446472 1.138144 2.736139
  C 3.392868 1.633634 3.825494
  C 3.127798 -0.366329 -0.750537
  C 4.514402 -0.485601 -0.914516
  C 5.136990 -0.870126 -2.077325
  C 4.514361 -1.230673 -3.350816
  H 3.436204 -1.187886 -3.347877
  H 6.221136 -0.914381 -2.064273
  H 0.557015 0.281734 1.346379
  H 0.658435 -0.986323 0.106078
  H 0.628301 0.679950 -0.376866
  H 3.978991 1.255931 1.241265
  H 3.818728 -0.313221 1.971053
  H 1.773446 0.401444 3.171604
  H 1.853041 1.976791 2.380438
  H 3.990380 0.814218 4.227124
  H 2.828296 2.071470 4.647506
  H 4.069024 2.396198 3.439023
  H 2.496500 -0.607641 -1.594599
  H 5.147987 -0.271300 -0.068435
  H 4.841246 -2.234397 -3.637441
  H 4.905761 -0.582000 -4.136064
 25
 0.178235
  C 1.003245 -0.067390 0.428965
  C 2.472379 -0.000045 0.431452
  C 3.229555 0.487381 1.601171
  C 2.444016 1.164281 2.720811
  C 3.389524 1.681942 3.799444
  C 3.124928 -0.383776 -0.739706
  C 4.511717 -0.506710 -0.908011
  C 5.131873 -0.858508 -2.081156
  C 4.508010 -1.169339 -3.367399
  H 3.431129 -1.121976 -3.363319
  H 6.213470 -0.912812 -2.068256
  H 0.561371 0.148676 1.394384
  H 0.671823 -1.048653 0.085429
  H 0.607895 0.644704 -0.301564
  H 4.015775 1.171477 1.259011
  H 3.763668 -0.368563 2.030915
  H 1.747979 0.465391 3.178368
  H 1.875534 2.000932 2.319129
  H 3.958883 0.867041 4.243186
  H 2.826369 2.170139 4.594822
  H 4.091246 2.409542 3.388906
  H 2.493961 -0.598684 -1.591284
  H 5.146286 -0.330472 -0.051624
  H 4.831010 -2.163935 -3.691296
  H 4.902308 -0.492132 -4.129197
 25
 0.207665
  C 1.007476 -0.148675 0.467446
  C 2.474861 -0.049065 0.452245
  C 3.226636 0.441519 1.624410
  C 2.440490 1.192520 2.697003
  C 3.382467 1.735497 3.767625
  C 3.121485 -0.402625 -0.730324
  C 4.507163 -0.519280 -0.904058
  C 5.127116 -0.840619 -2.087729
  C 4.501967 -1.105085 -3.381287
  H 3.419968 -1.050256 -3.374307
  H 6.207813 -0.902669 -2.076359
  H 0.578885 -0.004926 1.451459
  H 0.686306 -1.108023 0.060798
  H 0.587666 0.605970 -0.202976
  H 4.054673 1.070818 1.289910
  H 3.699189 -0.430784 2.098953
  H 1.713796 0.536582 3.178193
  H 1.901753 2.025537 2.243322
  H 3.919995 0.927792 4.260768
  H 2.820933 2.276413 4.525907
  H 4.110226 2.420240 3.337509
  H 2.486392 -0.608977 -1.580746
  H 5.142083 -0.365842 -0.043071
  H 4.817629 -2.088545 -3.736982
  H 4.900800 -0.405129 -4.120085
 25
 0.321475
  C 1.009229 -0.203322 0.497640
  C 2.476875 -0.094317 0.476542
  C 3.220618 0.401347 1.651350
  C 2.438653 1.239790 2.662988
  C 3.375342 1.810313 3.720685
  C 3.120652 -0.427646 -0.712582
  C 4.504291 -0.560622 -0.886932
  C 5.120813 -0.867999 -2.076566
  C 4.495113 -1.069880 -3.380526
  H 3.416229 -0.968374 -3.378689
  H 6.198477 -0.960087 -2.062825
  H 0.590160 -0.109906 1.490988
  H 0.687626 -1.141610 0.044692
  H 0.581417 0.585052 -0.126097
  H 4.095512 0.968039 1.325779
  H 3.617577 -0.478165 2.178769
  H 1.678420 0.642047 3.164251
  H 1.939329 2.063410 2.147794
  H 3.878404 1.015317 4.266208
  H 2.816570 2.407074 4.437532
  H 4.131605 2.449026 3.269969
  H 2.481363 -0.609556 -1.565460
  H 5.137918 -0.444196 -0.020928
  H 4.771260 -2.055096 -3.762132
  H 4.928143 -0.367958 -4.095129
 25
 0.737877
  C 1.010645 -0.311672 0.543249
  C 2.475016 -0.165010 0.506177
  C 3.215267 0.365102 1.667434
  C 2.431021 1.236850 2.647470
  C 3.367034 1.843972 3.688335
  C 3.115249 -0.472037 -0.692462
  C 4.497591 -0.608862 -0.874445
  C 5.114478 -0.828519 -2.082693
  C 4.487595 -0.930724 -3.398063
  H 3.409721 -0.828885 -3.388044
  H 6.193410 -0.924281 -2.075940
  H 0.601189 -0.229122 1.542456
  H 0.707395 -1.258149 0.096791
  H 0.556502 0.464581 -0.073073
  H 4.099185 0.920303 1.325371
  H 3.604119 -0.498213 2.226761
  H 1.673182 0.657715 3.164149
  H 1.933207 2.042421 2.102756
  H 3.868749 1.067791 4.263280
  H 2.805767 2.466345 4.383705
  H 4.125169 2.466233 3.216382
  H 2.468818 -0.590802 -1.550815
  H 5.126171 -0.570375 0.000587
  H 4.761525 -1.887137 -3.852316
  H 4.922541 -0.178284 -4.060132
 25
 1.146179
  C 1.033012 -0.438801 0.600492
  C 2.488379 -0.245358 0.542413
  C 3.216250 0.335622 1.686554
  C 2.414897 1.241495 2.620509
  C 3.340305 1.918118 3.629930
  C 3.118734 -0.523789 -0.665242
  C 4.500752 -0.627763 -0.867306
  C 5.107261 -0.786305 -2.088103
  C 4.466779 -0.827561 -3.401788
  H 3.390317 -0.707682 -3.376561
  H 6.189172 -0.874685 -2.095237
  H 0.643012 -0.403918 1.611611
  H 0.750438 -1.379787 0.126082
  H 0.540128 0.350231 0.022487
  H 4.097142 0.879441 1.332760
  H 3.601659 -0.500866 2.284651
  H 1.663726 0.675148 3.167808
  H 1.905075 2.007367 2.035862
  H 3.863009 1.179775 4.237479
  H 2.766964 2.556212 4.297969
  H 4.081675 2.536740 3.128024
  H 2.460217 -0.620802 -1.517872
  H 5.137916 -0.624984 0.008290
  H 4.718676 -1.770754 -3.891782
  H 4.908743 -0.060257 -4.039868
 25
 1.742059
  C 1.019211 -0.442099 0.623639
  C 2.477896 -0.262053 0.551330
  C 3.213816 0.339564 1.679580
  C 2.404839 1.240656 2.612786
  C 3.331960 1.957674 3.584892
  C 3.101568 -0.564902 -0.656163
  C 4.478646 -0.738661 -0.848320
  C 5.099440 -0.852126 -2.069540
  C 4.481816 -0.743459 -3.389361
  H 3.416127 -0.549017 -3.367456
  H 6.169958 -1.014263 -2.068570
  H 0.651136 -0.440577 1.646734
  H 0.712449 -1.358314 0.122008
  H 0.525377 0.376186 0.095115
  H 4.080257 0.890004 1.311054
  H 3.625463 -0.484425 2.276658
  H 1.680901 0.666333 3.185619
  H 1.860405 1.984162 2.025879
  H 3.897846 1.248578 4.182920
  H 2.759095 2.580192 4.260371
  H 4.032547 2.595670 3.056235
  H 2.443759 -0.594368 -1.513227
  H 5.090092 -0.839779 0.037308
  H 4.672475 -1.662726 -3.946481
  H 4.989878 0.036732 -3.958669
 25
 2.734149
  C 1.024774 -0.468506 0.641248
  C 2.488131 -0.294621 0.565019
  C 3.210718 0.355308 1.672617
  C 2.388061 1.239533 2.606659
  C 3.304006 2.007340 3.550763
  C 3.096898 -0.626953 -0.636420
  C 4.462662 -0.860173 -0.839122
  C 5.082447 -0.915556 -2.063370
  C 4.482995 -0.641348 -3.368294
  H 3.434102 -0.375026 -3.325045
  H 6.142686 -1.138996 -2.074591
  H 0.661130 -0.445090 1.664210
  H 0.717351 -1.395466 0.160513
  H 0.531494 0.344785 0.099089
  H 4.050714 0.932859 1.276707
  H 3.680442 -0.438191 2.272586
  H 1.697028 0.646199 3.203929
  H 1.806893 1.951475 2.020244
  H 3.913670 1.328576 4.141507
  H 2.715786 2.612123 4.237463
  H 3.964862 2.672717 2.999282
  H 2.427842 -0.585695 -1.490294
  H 5.063979 -1.062440 0.037783
  H 4.611978 -1.515706 -4.009439
  H 5.044477 0.153761 -3.864105
 25
 3.062809
  C 1.021726 -0.425329 0.612132
  C 2.490242 -0.251225 0.558844
  C 3.202395 0.375338 1.686382
  C 2.387460 1.285391 2.607503
  C 3.291139 1.920104 3.657559
  C 3.101304 -0.540598 -0.657633
  C 4.476641 -0.695998 -0.867220
  C 5.082427 -0.798718 -2.095980
  C 4.436616 -0.789579 -3.404518
  H 3.354714 -0.721449 -3.363925
  H 6.161480 -0.886459 -2.110649
  H 0.632329 -0.349974 1.621336
  H 0.726078 -1.380973 0.176464
  H 0.543915 0.353294 0.012800
  H 4.069041 0.925939 1.308735
  H 3.632283 -0.433687 2.299765
  H 1.603373 0.730560 3.121944
  H 1.917805 2.074050 2.018778
  H 3.749200 1.160234 4.283625
  H 2.715756 2.582218 4.298357
  H 4.083056 2.504183 3.192723
  H 2.432632 -0.496108 -1.505255
  H 5.106059 -0.790818 0.006073
  H 4.722969 -1.691968 -3.950101
  H 4.835074 0.032866 -4.000149
 25
 4.113520
  C 1.043947 -0.418244 0.613008
  C 2.515328 -0.260964 0.571401
  C 3.205703 0.370811 1.706973
  C 2.388577 1.311306 2.588474
  C 3.271865 1.921576 3.672153
  C 3.115902 -0.557500 -0.650916
  C 4.485388 -0.726760 -0.873864
  C 5.077869 -0.839837 -2.111137
  C 4.419946 -0.788564 -3.418661
  H 3.344918 -0.668130 -3.369741
  H 6.155020 -0.932093 -2.135443
  H 0.643327 -0.337454 1.613849
  H 0.744439 -1.369327 0.177141
  H 0.579798 0.362071 0.007911
  H 4.094007 0.897331 1.344528
  H 3.606331 -0.433590 2.343903
  H 1.566151 0.787979 3.073845
  H 1.970605 2.112956 1.978318
  H 3.662743 1.153099 4.337477
  H 2.698831 2.622540 4.272565
  H 4.111315 2.461182 3.237830
  H 2.430412 -0.475958 -1.485492
  H 5.120152 -0.816982 -0.002673
  H 4.662024 -1.698053 -3.972770
  H 4.861117 0.013899 -4.011089
 25
 4.973923
  C 1.050052 -0.384421 0.605218
  C 2.524083 -0.264103 0.575396
  C 3.206234 0.372219 1.712835
  C 2.374208 1.285227 2.607205
  C 3.263840 1.973610 3.636090
  C 3.121545 -0.585858 -0.640030
  C 4.482105 -0.831260 -0.866475
  C 5.076590 -0.926237 -2.105926
  C 4.439271 -0.740833 -3.408006
  H 3.376126 -0.544157 -3.354103
  H 6.141056 -1.121706 -2.131057
  H 0.647671 -0.336548 1.610318
  H 0.728320 -1.308341 0.128511
  H 0.607688 0.433378 0.032727
  H 4.082749 0.918560 1.350405
  H 3.633952 -0.429876 2.335844
  H 1.607596 0.726471 3.142580
  H 1.879506 2.044877 2.001375
  H 3.758137 1.246257 4.273603
  H 2.671125 2.628463 4.268761
  H 4.026633 2.575738 3.152940
  H 2.425335 -0.444400 -1.460112
  H 5.092857 -1.038329 0.002077
  H 4.618922 -1.626337 -4.021908
  H 4.940112 0.068900 -3.940679
