13

C 0.896604 0.048492 0.276309
C 2.389213 0.05877 0.094108
H 2.9847333590807876 0.008692981454365409 0.981659572661482
C 2.990578 0.12709 -1.116643
H 2.537920984660355 0.1817107764835458 -2.0846400027020433
C 4.449855 0.132333 -1.209488
C 5.186473 0.194914 -2.318647
H 6.256398042371817 0.1956309581327203 -2.331291748977406
H 0.601986 -0.010274 1.317726
H 0.453063 -0.811742 -0.218184
H 0.453065 0.958896 -0.118272
H 5.000315 0.07994 -0.280959
H 4.806058 0.251701 -3.324994
