 17
 0.000000
  H 1.426371 0.160959 0.451448
  C 2.500296 0.135986 0.389094
  H 3.085527 0.472576 1.227201
  C 3.060339 -0.328432 -0.767772
  C 4.444150 -0.413128 -0.979103
  C 5.130278 -0.869511 -2.116498
  C 4.617045 -1.387214 -3.406636
  C 3.128536 -1.499796 -3.687965
  H 2.994397 -1.901115 -4.687808
  O 6.438657 -0.862170 -2.098354
  H 2.391558 -0.642798 -1.550755
  H 5.068589 -0.082337 -0.155170
  H 5.080514 -2.373029 -3.537749
  H 5.081048 -0.766027 -4.182986
  H 2.642033 -0.528542 -3.653285
  H 2.641644 -2.177323 -2.991474
  H 6.848170 -0.532210 -1.274296
 17
 9.499955
  H 1.650125 0.253979 0.682391
  C 2.677800 0.120893 0.351412
  H 3.435396 0.409986 1.071761
  C 2.933737 -0.368757 -0.868031
  C 4.279171 -0.415353 -0.984396
  C 5.069979 -0.858261 -2.088387
  C 4.626684 -1.385532 -3.402382
  C 3.155081 -1.518064 -3.733263
  H 3.065423 -1.921430 -4.738431
  O 6.366567 -0.814614 -1.980345
  H 2.180414 -0.658895 -1.591282
  H 4.891222 -0.077781 -0.143116
  H 5.114061 -2.361792 -3.518303
  H 5.114311 -0.760618 -4.161106
  H 2.654164 -0.553341 -3.723601
  H 2.653814 -2.208193 -3.059506
  H 6.719274 -0.476551 -1.135939
 17
 39.460350
  H 1.803608 0.291441 0.775224
  C 2.786110 0.101591 0.303443
  H 3.571090 0.373162 0.980942
  C 2.846789 -0.396564 -0.936804
  C 4.176660 -0.400148 -0.946317
  C 5.051202 -0.853976 -2.077629
  C 4.643810 -1.385494 -3.401616
  C 3.165462 -1.522593 -3.744943
  H 3.078807 -1.925082 -4.747557
  O 6.341053 -0.792202 -1.925427
  H 2.067599 -0.668666 -1.615496
  H 4.821153 -0.081393 -0.150552
  H 5.136894 -2.354011 -3.508526
  H 5.137678 -0.760389 -4.148543
  H 2.668108 -0.563769 -3.736336
  H 2.667173 -2.208702 -3.075921
  H 6.664187 -0.447985 -1.067508
 17
 80.606661
  H 1.893162 0.302663 0.781854
  C 2.855508 0.093711 0.277708
  H 3.608351 0.374243 0.981671
  C 2.791276 -0.413391 -0.968148
  C 4.105091 -0.376742 -0.881659
  C 5.045667 -0.856145 -2.083192
  C 4.653392 -1.384698 -3.402416
  C 3.179038 -1.524543 -3.749856
  H 3.099523 -1.927975 -4.757497
  O 6.330677 -0.784519 -1.907721
  H 1.994898 -0.677790 -1.626254
  H 4.836657 -0.086023 -0.149315
  H 5.152569 -2.364875 -3.508576
  H 5.151689 -0.748371 -4.156037
  H 2.675936 -0.560834 -3.743341
  H 2.676782 -2.217865 -3.079993
  H 6.635588 -0.441882 -1.051315
 17
 116.547031
  H 1.913804 0.428268 0.765204
  C 2.889915 0.129322 0.281452
  H 3.615590 0.404258 1.011741
  C 2.746391 -0.482080 -0.941172
  C 4.051065 -0.375173 -0.793489
  C 5.059380 -0.868054 -2.114173
  C 4.676182 -1.383806 -3.437101
  C 3.198248 -1.525825 -3.770163
  H 3.105926 -1.914822 -4.778846
  O 6.339381 -0.785385 -1.918542
  H 1.942637 -0.753154 -1.576280
  H 4.850342 -0.141100 -0.129865
  H 5.176844 -2.355201 -3.555911
  H 5.160915 -0.734467 -4.180709
  H 2.695220 -0.567199 -3.741924
  H 2.711984 -2.227070 -3.103869
  H 6.623027 -0.444747 -1.044242
 17
 145.717786
  H 1.896272 0.537869 0.739393
  C 2.870401 0.190917 0.353829
  H 3.561702 0.460165 1.130952
  C 2.708503 -0.521565 -0.862768
  C 3.981927 -0.348973 -0.653492
  C 5.102711 -0.910437 -2.181509
  C 4.710470 -1.401775 -3.518156
  C 3.229916 -1.533040 -3.808303
  H 3.099421 -1.903563 -4.822278
  O 6.377934 -0.807674 -1.984915
  H 1.913722 -0.811274 -1.504083
  H 4.833867 -0.136715 -0.056949
  H 5.215863 -2.362136 -3.649982
  H 5.191182 -0.742386 -4.247629
  H 2.734953 -0.567804 -3.740673
  H 2.766530 -2.246241 -3.132499
  H 6.637323 -0.485099 -1.096065
 17
 141.648160
  H 1.721871 0.867378 0.620928
  C 2.672215 0.339884 0.595584
  H 3.201074 0.506681 1.522856
  C 2.617696 -0.567581 -0.567942
  C 3.849775 -0.323270 -0.296567
  C 5.271711 -0.991106 -2.381570
  C 4.818121 -1.448185 -3.719144
  C 3.306470 -1.555603 -3.864935
  H 3.066754 -1.890897 -4.862264
  O 6.555752 -0.882437 -2.280134
  H 1.905684 -0.836283 -1.309420
  H 4.777517 -0.141851 0.177628
  H 5.290437 -2.419371 -3.912798
  H 5.235421 -0.770739 -4.475241
  H 2.837680 -0.586082 -3.718244
  H 2.906123 -2.288778 -3.168507
  H 6.873780 -0.584991 -1.405820
 17
 111.318663
  H 2.039337 1.241636 -0.018735
  C 2.601747 0.422803 0.426743
  H 2.543866 0.464423 1.510457
  C 2.670617 -0.830591 -0.335462
  C 3.854326 -0.306530 -0.082986
  C 5.460474 -1.085197 -2.530342
  C 4.806065 -1.390793 -3.786818
  C 3.287918 -1.488598 -3.748908
  H 2.912445 -1.706177 -4.742027
  O 6.703612 -0.879924 -2.455292
  H 2.065627 -1.334866 -1.044279
  H 4.713836 -0.023940 0.457091
  H 5.231911 -2.346150 -4.115233
  H 5.126652 -0.645238 -4.534837
  H 2.852559 -0.547518 -3.416725
  H 2.976084 -2.285768 -3.082795
  H 7.106385 -0.786774 -1.563975
 17
 100.627808
  H 2.301783 1.253317 -0.397956
  C 2.666630 0.423518 0.200506
  H 2.475052 0.538822 1.258101
  C 2.726158 -0.940500 -0.364684
  C 3.899998 -0.377134 -0.221766
  C 5.433867 -1.091856 -2.435508
  C 4.746610 -1.312143 -3.677373
  C 3.227920 -1.429311 -3.629543
  H 2.841245 -1.549078 -4.639366
  O 6.644989 -0.801942 -2.312300
  H 2.139591 -1.654121 -0.893070
  H 4.864600 -0.190955 0.167222
  H 5.155203 -2.247267 -4.073698
  H 5.039015 -0.520768 -4.389084
  H 2.785752 -0.536167 -3.198885
  H 2.928824 -2.294757 -3.047856
  H 7.043706 -0.719409 -1.414572
