 20
 0.000000
  C 1.008458 -0.070951 0.048772
  C 2.504239 -0.083065 0.024991
  C 3.218312 -0.596198 -0.982378
  C 4.656103 -0.607169 -1.003915
  C 5.376265 -1.122394 -2.015386
  C 6.814768 -1.131415 -2.033092
  C 7.534187 -1.642723 -3.036885
  C 9.024420 -1.660578 -3.071928
  H 0.649902 0.395877 0.965233
  H 0.611946 -1.085654 0.011563
  H 0.611945 0.495557 -0.793888
  H 3.005999 0.352191 0.879477
  H 2.706096 -1.029522 -1.833055
  H 5.161017 -0.172227 -0.150054
  H 4.872516 -1.557567 -2.869706
  H 7.320667 -0.696605 -1.179489
  H 7.036570 -2.079378 -3.894091
  H 9.456601 -1.206928 -2.181348
  H 9.384692 -1.114014 -3.945067
  H 9.384697 -2.688217 -3.143204
 20
 3.065344
  C 0.987343 -0.131261 -0.220966
  C 2.457549 -0.033231 0.056207
  C 3.344480 -0.567053 -0.785085
  C 4.778383 -0.534316 -0.685980
  C 5.518086 -1.080015 -1.667806
  C 6.940190 -1.106626 -1.811036
  C 7.468263 -1.639792 -2.916693
  C 8.903888 -1.692013 -3.311470
  H 0.422689 0.317834 0.584806
  H 0.693106 -1.177145 -0.293531
  H 0.735107 0.367013 -1.155282
  H 2.773631 0.498500 0.944619
  H 2.958670 -1.076185 -1.662235
  H 5.229635 -0.046382 0.167173
  H 4.983033 -1.550524 -2.485529
  H 7.556657 -0.670787 -1.040129
  H 6.778957 -2.050120 -3.648192
  H 9.545612 -1.271853 -2.536338
  H 9.056586 -1.134426 -4.237611
  H 9.207100 -2.722765 -3.498736
 20
 4.035183
  C 0.982027 -0.048409 -0.373745
  C 2.437329 -0.024504 -0.021524
  C 3.337023 -0.681976 -0.760204
  C 4.764111 -0.691920 -0.593324
  C 5.540711 -1.268882 -1.524346
  C 6.973779 -1.213787 -1.663900
  C 7.512173 -1.645037 -2.804179
  C 8.900533 -1.545687 -3.335775
  H 0.366602 0.468582 0.357954
  H 0.625263 -1.076470 -0.439991
  H 0.811725 0.415753 -1.349918
  H 2.737183 0.549010 0.844101
  H 2.974343 -1.240494 -1.616977
  H 5.188040 -0.154464 0.243554
  H 5.035942 -1.774082 -2.341571
  H 7.562649 -0.745443 -0.887058
  H 6.825025 -2.081751 -3.523260
  H 9.593034 -1.169369 -2.585231
  H 8.918652 -0.877006 -4.199988
  H 9.242074 -2.518947 -3.671466
 20
 8.041820
  C 1.016891 -0.189986 -0.358587
  C 2.451699 0.013777 0.034743
  C 3.420053 -0.618325 -0.631608
  C 4.849506 -0.457964 -0.526411
  C 5.614984 -1.063288 -1.446123
  C 7.035856 -1.026277 -1.689628
  C 7.453119 -1.588406 -2.822207
  C 8.761107 -1.742232 -3.504725
  H 0.311146 0.397641 0.227682
  H 0.738364 -1.244361 -0.279898
  H 0.880995 0.096006 -1.401283
  H 2.671573 0.725946 0.826490
  H 3.108785 -1.310006 -1.393949
  H 5.257149 0.182512 0.255442
  H 5.077444 -1.658593 -2.178235
  H 7.695205 -0.517951 -0.999593
  H 6.673468 -2.025803 -3.439541
  H 9.584574 -1.376280 -2.896837
  H 8.745817 -1.206669 -4.458663
  H 8.929550 -2.792271 -3.716444
 20
 13.925060
  C 1.160504 -0.277130 -0.636601
  C 2.439136 0.033853 0.082045
  C 3.511785 -0.543253 -0.458725
  C 4.935275 -0.434832 -0.282029
  C 5.648322 -1.035648 -1.250566
  C 7.038513 -1.073226 -1.627339
  C 7.288065 -1.626825 -2.820867
  C 8.572263 -1.721164 -3.564858
  H 0.288443 0.192925 -0.237067
  H 0.992071 -1.353569 -0.647015
  H 1.254356 0.079306 -1.664711
  H 2.447369 0.729402 0.900448
  H 3.264974 -1.204305 -1.297753
  H 5.361760 0.171596 0.496830
  H 5.052046 -1.575682 -1.977880
  H 7.804554 -0.594452 -1.032090
  H 6.452585 -2.035015 -3.370850
  H 9.400006 -1.320725 -2.988061
  H 8.496300 -1.167874 -4.501090
  H 8.784716 -2.751730 -3.823291
 20
 14.896561
  C 1.127449 -0.252116 -0.586110
  C 2.441835 0.042999 0.051166
  C 3.486549 -0.617741 -0.463291
  C 4.915200 -0.449976 -0.374317
  C 5.630682 -1.088356 -1.305304
  C 7.017691 -1.063973 -1.667492
  C 7.337686 -1.570846 -2.863713
  C 8.618526 -1.700933 -3.579234
  H 0.199331 0.262631 -0.322608
  H 0.894743 -1.316009 -0.507832
  H 1.249514 -0.041097 -1.653517
  H 2.522160 0.839114 0.783914
  H 3.223949 -1.397832 -1.167928
  H 5.348023 0.220919 0.344197
  H 5.039712 -1.714084 -1.984774
  H 7.752064 -0.609500 -1.012929
  H 6.489042 -1.938802 -3.438455
  H 9.453285 -1.367782 -2.965110
  H 8.593798 -1.104847 -4.492293
  H 8.770385 -2.737421 -3.869530
 20
 17.425838
  C 1.219550 -0.271778 -0.759094
  C 2.461823 0.122635 -0.021755
  C 3.523741 -0.637572 -0.330679
  C 4.949034 -0.476523 -0.235105
  C 5.648431 -1.175914 -1.157879
  C 7.008208 -1.118331 -1.636281
  C 7.236812 -1.617630 -2.855222
  C 8.485886 -1.625654 -3.658126
  H 0.257805 0.203940 -0.609605
  H 1.038228 -1.347335 -0.632717
  H 1.430134 -0.117055 -1.820959
  H 2.491836 1.025253 0.562765
  H 3.272671 -1.498144 -0.942582
  H 5.388535 0.275043 0.403972
  H 5.053274 -1.861122 -1.760595
  H 7.781392 -0.625156 -1.061622
  H 6.373950 -2.018053 -3.388902
  H 9.341924 -1.278204 -3.070887
  H 8.371749 -0.978436 -4.528760
  H 8.692710 -2.643824 -4.027991
 20
 17.915138
  C 1.314033 -0.266342 -0.920320
  C 2.558111 0.162226 -0.202461
  C 3.539826 -0.748052 -0.163479
  C 4.972375 -0.565330 -0.171275
  C 5.638856 -1.361615 -1.025124
  C 6.952570 -1.218562 -1.606713
  C 7.121281 -1.588201 -2.880500
  C 8.356025 -1.444123 -3.696347
  H 0.423677 0.339915 -0.941214
  H 1.009427 -1.262049 -0.606583
  H 1.599138 -0.356418 -1.974382
  H 2.720897 1.207755 0.006181
  H 3.246009 -1.756785 -0.450450
  H 5.419318 0.314775 0.275395
  H 5.067099 -2.164099 -1.485216
  H 7.744724 -0.737321 -1.043538
  H 6.262977 -1.968131 -3.422497
  H 9.197384 -1.119743 -3.089758
  H 8.195794 -0.714885 -4.492036
  H 8.608789 -2.394387 -4.170828
 20
 22.113872
  C 1.545558 -0.194443 -1.241332
  C 2.749747 0.146187 -0.426438
  C 3.551005 -0.848783 -0.016689
  C 5.002734 -0.754427 -0.024466
  C 5.640467 -1.637052 -0.813099
  C 6.892814 -1.393237 -1.521444
  C 6.935481 -1.550915 -2.841281
  C 8.076834 -1.162174 -3.718731
  H 0.819368 0.589237 -1.446834
  H 1.016346 -1.066888 -0.859156
  H 1.938001 -0.474735 -2.222797
  H 3.101274 1.169427 -0.442217
  H 3.150813 -1.857942 -0.030666
  H 5.488398 0.144627 0.330592
  H 5.088818 -2.508249 -1.150703
  H 7.733366 -0.978252 -0.979080
  H 6.084179 -1.966508 -3.357443
  H 8.904659 -0.760609 -3.137719
  H 7.752327 -0.407071 -4.435743
  H 8.432815 -2.018655 -4.288979
