 26
 0.000000
  C 0.951143 0.144898 0.411019
  C 2.426492 0.138999 0.396582
  C 3.223550 0.604769 1.556115
  C 2.459704 1.096963 2.781177
  H 3.150859 1.406608 3.552502
  C 3.036743 -0.327370 -0.764405
  C 4.413939 -0.408492 -0.967426
  C 5.105081 -0.857962 -2.088092
  C 4.616275 -1.381395 -3.392534
  C 3.129109 -1.502314 -3.693806
  H 2.994717 -1.901809 -4.689380
  O 6.424044 -0.848209 -2.064485
  H 0.532860 0.517428 1.337901
  H 0.575256 -0.864395 0.236595
  H 0.575256 0.752843 -0.413314
  H 3.881969 1.412645 1.217731
  H 3.881795 -0.212795 1.870706
  H 1.826368 0.306532 3.180391
  H 1.826724 1.944171 2.522674
  H 2.375313 -0.643742 -1.551681
  H 5.037785 -0.078248 -0.145547
  H 5.082612 -2.366160 -3.514607
  H 5.082749 -0.754284 -4.161489
  H 2.648265 -0.527639 -3.650123
  H 2.648370 -2.176541 -2.988545
  H 6.803173 -0.513873 -1.230021
 26
 18.508935
  C 0.936631 0.159993 0.448771
  C 2.410435 0.143785 0.408665
  C 3.249703 0.598909 1.541217
  C 2.524653 1.099460 2.787028
  H 3.256569 1.399656 3.534755
  C 3.001945 -0.332905 -0.777809
  C 4.418502 -0.425266 -1.008882
  C 5.012866 -0.866723 -2.110089
  C 4.643252 -1.400253 -3.440268
  C 3.176498 -1.537712 -3.781934
  H 3.091460 -1.941136 -4.787884
  O 6.246043 -0.763071 -1.852265
  H 0.539090 0.535880 1.383549
  H 0.549363 -0.847935 0.277049
  H 0.549342 0.768525 -0.372845
  H 3.909221 1.397528 1.178747
  H 3.909272 -0.228379 1.832206
  H 1.902028 0.322579 3.223066
  H 1.902311 1.962262 2.564497
  H 2.326454 -0.647534 -1.561061
  H 5.013717 -0.090713 -0.174750
  H 5.136564 -2.367392 -3.531406
  H 5.136286 -0.764052 -4.174599
  H 2.675626 -0.574215 -3.766149
  H 2.676193 -2.223705 -3.104703
  H 6.516633 -0.416951 -0.986919
 26
 68.265047
  C 0.921533 0.181070 0.507717
  C 2.388990 0.158938 0.448912
  C 3.243894 0.606851 1.557862
  C 2.528986 1.110420 2.808069
  H 3.263612 1.408647 3.546557
  C 2.985301 -0.343694 -0.800710
  C 4.504749 -0.449641 -1.064414
  C 4.991080 -0.895748 -2.179503
  C 4.686092 -1.424029 -3.501696
  C 3.206340 -1.562041 -3.848779
  H 3.117090 -1.963419 -4.853680
  O 6.169504 -0.735075 -1.776325
  H 0.540287 0.560994 1.450831
  H 0.526958 -0.825308 0.340204
  H 0.524938 0.788595 -0.310846
  H 3.901773 1.403482 1.184652
  H 3.903286 -0.224712 1.841291
  H 1.909956 0.334060 3.251273
  H 1.908889 1.976387 2.589153
  H 2.302598 -0.653353 -1.571289
  H 5.012397 -0.101716 -0.195158
  H 5.189651 -2.393635 -3.575283
  H 5.190610 -0.772689 -4.223191
  H 2.704421 -0.593504 -3.829364
  H 2.703730 -2.250354 -3.167654
  H 6.418019 -0.386765 -0.897681
 26
 133.339910
  C 0.865119 0.194818 0.543935
  C 2.327629 0.167386 0.470830
  C 3.227801 0.614986 1.577558
  C 2.557038 1.125361 2.843290
  H 3.307166 1.411732 3.551576
  C 2.913356 -0.342839 -0.796637
  C 4.633037 -0.461150 -1.092159
  C 4.998830 -0.912764 -2.221303
  C 4.727460 -1.449699 -3.566066
  C 3.245923 -1.586052 -3.910394
  H 3.151034 -1.984558 -4.909238
  O 6.163333 -0.716663 -1.731704
  H 0.495094 0.576511 1.490569
  H 0.466273 -0.808961 0.382141
  H 0.463969 0.803742 -0.269189
  H 3.876684 1.400770 1.197129
  H 3.878530 -0.214243 1.848893
  H 1.942230 0.355607 3.305301
  H 1.941147 1.999585 2.641766
  H 2.218241 -0.652322 -1.567362
  H 5.022276 -0.092392 -0.170498
  H 5.217645 -2.413859 -3.637892
  H 5.219035 -0.800950 -4.282415
  H 2.745615 -0.614174 -3.884552
  H 2.744293 -2.272625 -3.222839
  H 6.435503 -0.377799 -0.872282
 26
 154.675970
  C 0.651495 0.264497 0.701205
  C 2.156372 0.165683 0.457145
  C 3.134930 0.594526 1.512429
  C 2.556531 1.111074 2.816700
  H 3.369352 1.366730 3.493600
  C 2.545316 -0.308942 -0.708562
  C 4.958434 -0.487450 -1.177638
  C 5.110325 -0.951410 -2.345114
  C 4.838757 -1.468496 -3.654793
  C 3.338672 -1.589517 -3.904019
  H 3.183506 -1.999156 -4.898526
  O 6.459895 -0.730967 -1.791622
  H 0.440121 0.669811 1.677503
  H 0.196176 -0.714586 0.616393
  H 0.197128 0.902442 -0.046622
  H 3.794113 1.361135 1.093733
  H 3.752629 -0.272978 1.753859
  H 1.941859 0.360220 3.304279
  H 1.958602 2.005056 2.662071
  H 1.953643 -0.652114 -1.529596
  H 5.065641 -0.097431 -0.208520
  H 5.303540 -2.458109 -3.710403
  H 5.302415 -0.804506 -4.387176
  H 2.855692 -0.620172 -3.864915
  H 2.878180 -2.273513 -3.191952
  H 6.877959 -0.425803 -0.961346
 26
 158.042614
  C 0.485599 0.266007 0.845886
  C 1.955144 0.182946 0.469096
  C 3.023766 0.626977 1.468470
  C 2.554875 1.116809 2.826976
  H 3.429070 1.351712 3.437939
  C 2.270713 -0.307006 -0.692193
  C 5.205360 -0.509828 -1.221335
  C 5.243126 -0.970098 -2.404342
  C 4.930706 -1.473079 -3.701511
  C 3.422510 -1.566154 -3.907525
  H 3.214923 -1.967001 -4.909668
  O 6.641063 -0.800257 -1.895917
  H 0.355350 0.688609 1.841481
  H 0.048158 -0.727665 0.833149
  H -0.041412 0.890471 0.134043
  H 3.657015 1.389095 1.012893
  H 3.628446 -0.265513 1.664876
  H 1.987406 0.352452 3.350956
  H 1.959330 2.023126 2.750316
  H 1.721761 -0.706321 -1.518202
  H 5.206453 -0.054577 -0.252749
  H 5.389900 -2.463669 -3.798488
  H 5.405685 -0.830674 -4.451496
  H 2.958872 -0.583654 -3.821562
  H 2.971838 -2.226765 -3.158519
  H 7.198528 -0.486252 -1.162286
 26
 155.716403
  C 0.372012 0.298841 0.971241
  C 1.818393 0.157375 0.498901
  C 2.956517 0.581612 1.427533
  C 2.577307 1.128324 2.798140
  H 3.483445 1.384103 3.341296
  C 2.071257 -0.318446 -0.676088
  C 5.400016 -0.553890 -1.243147
  C 5.318783 -0.996377 -2.426471
  C 5.006574 -1.486383 -3.728405
  C 3.483421 -1.540124 -3.887959
  H 3.244661 -1.910749 -4.878109
  O 6.775651 -0.839119 -1.886377
  H 0.315087 0.727539 1.967721
  H -0.106564 -0.680687 0.981997
  H -0.177053 0.944169 0.282159
  H 3.537573 1.348019 0.911080
  H 3.590004 -0.295788 1.587996
  H 2.037135 0.392908 3.387986
  H 1.976980 2.030739 2.718201
  H 1.584776 -0.691020 -1.539430
  H 5.135671 -0.168476 -0.292727
  H 5.444215 -2.477808 -3.855360
  H 5.452950 -0.829390 -4.476793
  H 3.047295 -0.550932 -3.775081
  H 3.043779 -2.203924 -3.156101
  H 7.427681 -0.485067 -1.245317
 26
 153.131793
  C 0.292458 0.356728 1.091667
  C 1.709503 0.187497 0.546433
  C 2.895902 0.569772 1.432984
  C 2.582587 1.105338 2.824518
  H 3.514694 1.334389 3.336155
  C 1.896951 -0.279216 -0.644815
  C 5.500243 -0.555220 -1.317307
  C 5.324247 -0.965856 -2.509971
  C 5.091908 -1.547582 -3.773407
  C 3.560230 -1.556384 -3.969924
  H 3.342074 -2.000720 -4.934756
  O 6.843585 -0.787422 -1.856250
  H 0.297241 0.770447 2.093270
  H -0.209430 -0.611322 1.114637
  H -0.269323 1.023828 0.444354
  H 3.471857 1.333806 0.903731
  H 3.516170 -0.319067 1.553963
  H 2.047411 0.369655 3.427494
  H 2.000077 2.022082 2.779379
  H 1.403112 -0.637602 -1.514353
  H 5.153315 -0.176821 -0.387249
  H 5.490384 -2.562267 -3.798639
  H 5.576678 -0.962958 -4.562949
  H 3.159463 -0.547105 -3.952566
  H 3.070852 -2.145247 -3.191198
  H 7.526430 -0.402443 -1.270034
 26
 122.221614
  C 0.285239 0.455532 1.311128
  C 1.641705 0.204861 0.654818
  C 2.924924 0.564534 1.402741
  C 2.771045 1.143429 2.801406
  H 3.763482 1.345691 3.202008
  C 1.643879 -0.324583 -0.516756
  C 5.482058 -0.613503 -1.447925
  C 5.202146 -1.059317 -2.631143
  C 5.137645 -1.629215 -3.920027
  C 3.651618 -1.675280 -4.388304
  H 3.618119 -2.108588 -5.386220
  O 6.805841 -0.612060 -1.050434
  H 0.420764 0.900450 2.286199
  H -0.251351 -0.484828 1.409441
  H -0.307367 1.116798 0.685774
  H 3.466261 1.285597 0.787835
  H 3.524266 -0.344511 1.469298
  H 2.284978 0.443160 3.476460
  H 2.226016 2.086069 2.793274
  H 1.169724 -0.735198 -1.369528
  H 4.815715 -0.214114 -0.687460
  H 5.517684 -2.656555 -3.912127
  H 5.695404 -1.018745 -4.636164
  H 3.235214 -0.674530 -4.420755
  H 3.064938 -2.291999 -3.712158
  H 6.981492 -0.059972 -0.268811
 26
 116.853721
  C 0.406422 0.332048 1.020715
  C 1.807918 0.099722 0.462151
  C 3.021965 0.520525 1.284901
  C 2.745712 1.130305 2.651002
  H 3.697769 1.375815 3.119114
  C 1.915916 -0.456678 -0.690811
  C 5.735722 -0.636011 -1.344157
  C 5.455959 -1.086380 -2.535734
  C 4.955844 -1.612808 -3.830637
  C 3.339274 -1.443553 -3.943135
  H 3.003513 -1.842956 -4.954658
  O 6.931830 -0.534552 -0.776226
  H 0.464870 0.809951 1.990865
  H -0.109765 -0.618831 1.119087
  H -0.159805 0.963803 0.341391
  H 3.576450 1.245265 0.684408
  H 3.639101 -0.370756 1.419054
  H 2.228793 0.433741 3.306894
  H 2.172156 2.051322 2.574979
  H 1.657301 -0.914123 -1.605735
  H 4.852756 -0.313821 -0.760592
  H 5.221100 -2.687313 -3.932222
  H 5.417057 -1.058607 -4.687454
  H 3.033316 -0.385471 -3.853079
  H 2.845123 -2.006795 -3.124327
  H 6.915146 0.049278 -0.003223
