 26
 0.000000
  C 0.996384 0.132972 0.381868
  C 2.475139 0.140018 0.399085
  C 3.241227 0.613797 1.578372
  C 2.445071 1.099206 2.786946
  C 3.376873 1.549401 3.907489
  C 3.096863 -0.322475 -0.752613
  C 4.472906 -0.413204 -0.978851
  C 5.132414 -0.867699 -2.111643
  C 4.618673 -1.388937 -3.410716
  H 3.569972 -1.467842 -3.607948
  O 6.457488 -0.870547 -2.119086
  H 0.547238 0.500715 1.297563
  H 0.632250 -0.881396 0.212641
  H 0.631990 0.748397 -0.441931
  H 3.897288 1.429656 1.253616
  H 3.897458 -0.199872 1.908184
  H 1.806291 0.298662 3.165430
  H 1.806160 1.939037 2.506526
  H 4.012896 0.731247 4.239516
  H 2.797657 1.892484 4.761770
  H 4.012720 2.370011 3.581218
  H 2.436796 -0.639606 -1.542199
  H 5.100515 -0.083792 -0.158214
  H 5.068655 -2.379864 -3.541239
  H 5.069011 -0.763340 -4.190016
  H 6.834017 -0.535875 -1.285013
 26
 0.000000
  C 1.022006 0.114009 0.334638
  C 2.530715 0.125864 0.363829
  C 3.286223 0.601997 1.548980
  C 2.479278 1.084927 2.751378
  C 3.401021 1.537990 3.879064
  C 3.125237 -0.321511 -0.750219
  C 4.437047 -0.406550 -0.962286
  C 5.072522 -0.844732 -2.054435
  C 4.584559 -1.369398 -3.362044
  H 3.539931 -1.455468 -3.577105
  O 6.334435 -0.830043 -2.018192
  H 0.564681 0.480350 1.246840
  H 0.662326 -0.901479 0.162621
  H 0.662069 0.728313 -0.491953
  H 3.942241 1.419886 1.229280
  H 3.942408 -0.209641 1.883850
  H 1.840080 0.282407 3.124937
  H 1.839952 1.922781 2.466032
  H 4.036994 0.721803 4.215993
  H 2.814179 1.879269 4.728852
  H 4.036822 2.360567 3.557693
  H 2.464443 -0.638431 -1.539281
  H 5.063491 -0.076827 -0.140884
  H 5.043472 -2.357215 -3.484829
  H 5.043813 -0.740688 -4.133598
  H 6.664006 -0.477028 -1.138409
 26
 0.000000
  C 1.045833 0.095031 0.287369
  C 2.587860 0.112251 0.329920
  C 3.331991 0.590867 1.521256
  C 2.513564 1.071108 2.716953
  C 3.424472 1.527204 3.852197
  C 3.156602 -0.320550 -0.747833
  C 4.403771 -0.400640 -0.947576
  C 5.015411 -0.823199 -2.000800
  C 4.552825 -1.351050 -3.316334
  H 3.512521 -1.444101 -3.548767
  O 6.212989 -0.792805 -1.925434
  H 0.579791 0.459844 1.195765
  H 0.690947 -0.921640 0.112406
  H 0.690693 0.708151 -0.542171
  H 3.987912 1.410927 1.206965
  H 3.988075 -0.218600 1.861535
  H 1.873965 0.266471 3.085240
  H 1.873841 1.906845 2.426334
  H 4.060345 0.713122 4.194369
  H 2.829516 1.866528 4.697113
  H 4.060176 2.351885 3.536068
  H 2.494590 -0.637117 -1.536015
  H 5.029876 -0.070824 -0.125953
  H 5.020327 -2.335764 -3.431404
  H 5.020652 -0.719234 -4.080166
  H 6.491100 -0.420075 -0.996521
 26
 0.000000
  C 1.067566 0.076018 0.240014
  C 2.646532 0.099211 0.297436
  C 3.378499 0.580425 1.495245
  C 2.547932 1.057764 2.683715
  C 3.447241 1.517047 3.826897
  C 3.190927 -0.319592 -0.745456
  C 4.373402 -0.395370 -0.934457
  C 4.961398 -0.803062 -1.950641
  C 4.523459 -1.333825 -3.273424
  H 3.487649 -1.433590 -3.522559
  O 6.093826 -0.758912 -1.841007
  H 0.592294 0.439176 1.144285
  H 0.717807 -0.941893 0.061961
  H 0.717557 0.687897 -0.592618
  H 4.034262 1.402794 1.186705
  H 4.034421 -0.226733 1.841278
  H 1.907964 0.250875 3.046392
  H 1.907844 1.891249 2.387484
  H 4.082952 0.705203 4.174644
  H 2.843708 1.854262 4.666560
  H 4.082787 2.343966 3.516342
  H 2.527245 -0.635674 -1.532429
  H 5.000022 -0.065684 -0.113174
  H 4.999112 -2.315490 -3.380908
  H 4.999420 -0.698957 -4.029663
  H 6.315059 -0.365398 -0.860300
 26
 0.000000
  C 1.085919 0.056921 0.192450
  C 2.707186 0.086850 0.266645
  C 3.426061 0.570798 1.471265
  C 2.582580 1.044984 2.651880
  C 3.469384 1.507633 3.803447
  C 3.228734 -0.318649 -0.743117
  C 4.346411 -0.390752 -0.922967
  C 4.910906 -0.784484 -1.904366
  C 4.496560 -1.317872 -3.233682
  H 3.465321 -1.424005 -3.498652
  O 5.977445 -0.728558 -1.765397
  H 0.600815 0.418270 1.092214
  H 0.741685 -0.962298 0.011138
  H 0.741439 0.667491 -0.643443
  H 4.081589 1.395637 1.168880
  H 4.081743 -0.233888 1.823454
  H 1.942280 0.235683 3.008548
  H 1.942164 1.876056 2.349639
  H 4.104857 0.698184 4.157160
  H 2.856728 1.842557 4.637403
  H 4.104698 2.336946 3.498857
  H 2.562825 -0.634080 -1.528468
  H 4.974622 -0.061482 -0.102733
  H 4.979843 -2.296584 -3.333821
  H 4.980132 -0.680050 -3.982571
  H 6.135155 -0.312760 -0.729158
 26
 0.000000
  C 1.099417 0.037966 0.145241
  C 2.769171 0.075445 0.238233
  C 3.474142 0.562226 1.449912
  C 2.617121 1.033030 2.622102
  C 3.490622 1.499181 3.782394
  C 3.269767 -0.317754 -0.740897
  C 4.323729 -0.386834 -0.913218
  C 4.865213 -0.767860 -1.862960
  C 4.472663 -1.303535 -3.197962
  H 3.445875 -1.415498 -3.477430
  O 5.866366 -0.702329 -1.700065
  H 0.603984 0.397366 1.040148
  H 0.761052 -0.982611 -0.039454
  H 0.760810 0.647178 -0.694038
  H 4.129349 1.389673 1.154022
  H 4.129499 -0.239853 1.808597
  H 1.976541 0.221181 2.972423
  H 1.976429 1.861554 2.313513
  H 4.125775 0.692260 4.142405
  H 2.868403 1.831649 4.610233
  H 4.125620 2.331021 3.484100
  H 2.601050 -0.632359 -1.524191
  H 4.954739 -0.058301 -0.094837
  H 4.962847 -2.279490 -3.291245
  H 4.963117 -0.662953 -3.939991
  H 5.953669 -0.262948 -0.605056
 26
 0.000000
  C 1.106983 0.019077 0.098196
  C 2.832618 0.065078 0.212408
  C 3.522823 0.554790 1.431389
  C 2.651612 1.021965 2.594540
  C 3.510961 1.491756 3.763901
  C 3.314173 -0.316908 -0.738801
  C 4.305740 -0.383548 -0.905045
  C 4.824702 -0.753228 -1.826515
  C 4.451798 -1.290851 -3.166358
  H 3.429208 -1.408029 -3.458786
  O 5.761239 -0.680211 -1.644972
  H 0.600708 0.376374 0.987864
  H 0.774858 -1.002908 -0.090008
  H 0.774621 0.626879 -0.744594
  H 4.177610 1.384988 1.142353
  H 4.177756 -0.244537 1.796929
  H 2.010816 0.207425 2.938156
  H 2.010708 1.847797 2.279246
  H 4.145698 0.687502 4.130555
  H 2.878722 1.821591 4.585179
  H 4.145548 2.326263 3.472249
  H 2.642033 -0.630499 -1.519569
  H 4.940873 -0.056112 -0.089416
  H 4.948083 -2.264296 -3.253403
  H 4.948331 -0.647758 -3.902146
  H 5.770092 -0.215985 -0.488047
 26
 0.000000
  C 1.106523 0.000312 0.051460
  C 2.897350 0.056002 0.189797
  C 3.571916 0.548733 1.416298
  C 2.685886 1.012023 2.569774
  C 3.530220 1.485582 3.748522
  C 3.362052 -0.316132 -0.736879
  C 4.293272 -0.380932 -0.898540
  C 4.790389 -0.740930 -1.795886
  C 4.434342 -1.280141 -3.139671
  H 3.415495 -1.401764 -3.443138
  O 5.663793 -0.662542 -1.600963
  H 0.588902 0.355346 0.935492
  H 0.781012 -1.023128 -0.140368
  H 0.780779 0.606659 -0.794956
  H 4.226172 1.381825 1.134473
  H 4.226312 -0.247700 1.789049
  H 2.044950 0.194649 2.906332
  H 2.044847 1.835021 2.247421
  H 4.164431 0.684133 4.122165
  H 2.887518 1.812598 4.562780
  H 4.164286 2.322893 3.463857
  H 2.685793 -0.628492 -1.514580
  H 4.934059 -0.055020 -0.086728
  H 4.935773 -2.251414 -3.221319
  H 4.935999 -0.634875 -3.870061
  H 5.585289 -0.172023 -0.378517
 26
 0.000000
  C 1.095975 -0.018270 0.005182
  C 2.962961 0.048476 0.171046
  C 3.621071 0.544288 1.405226
  C 2.719678 1.003446 2.548410
  C 3.548181 1.480873 3.736796
  C 3.413249 -0.315436 -0.735157
  C 4.287018 -0.378998 -0.893734
  C 4.763146 -0.731270 -1.771829
  C 4.420529 -1.271693 -3.118614
  H 3.404754 -1.396838 -3.430824
  O 5.575682 -0.649560 -1.568629
  H 0.566568 0.334344 0.883185
  H 0.777429 -1.043199 -0.190356
  H 0.777202 0.586586 -0.844947
  H 4.274671 1.380405 1.130933
  H 4.274808 -0.249119 1.785511
  H 2.078693 0.183108 2.877583
  H 2.078594 1.823480 2.218673
  H 4.181748 0.682356 4.117740
  H 2.894636 1.804893 4.543590
  H 4.181607 2.321116 3.459432
  H 2.732113 -0.626322 -1.509184
  H 4.935146 -0.055098 -0.086956
  H 4.926003 -2.241222 -3.195936
  H 4.926205 -0.624684 -3.844677
  H 5.400191 -0.131284 -0.277015
 26
 0.000000
  C 1.073415 -0.036581 -0.040418
  C 3.028789 0.042771 0.156832
  C 3.669756 0.541693 1.398759
  C 2.752608 0.996499 2.531103
  C 3.564588 1.477852 3.729272
  C 3.467305 -0.314790 -0.733560
  C 4.287418 -0.377713 -0.890545
  C 4.743559 -0.724471 -1.754900
  C 4.410357 -1.265716 -3.103714
  H 3.396785 -1.393325 -3.422023
  O 5.498276 -0.641350 -1.548185
  H 0.531894 0.313471 0.831202
  H 0.762133 -1.063018 -0.239712
  H 0.761910 0.566767 -0.894306
  H 4.322572 1.380937 1.132256
  H 4.322704 -0.248587 1.786835
  H 2.111677 0.173091 2.852633
  H 2.111582 1.813463 2.193722
  H 4.197384 0.682366 4.117766
  H 2.899925 1.798716 4.528208
  H 4.197248 2.321126 3.459457
  H 2.780496 -0.623941 -1.503260
  H 4.944667 -0.056364 -0.090147
  H 4.918638 -2.234015 -3.177986
  H 4.918816 -0.617478 -3.826730
  H 5.215814 -0.093982 -0.184073
 26
 0.000000
  C 1.035908 -0.054647 -0.085406
  C 3.094559 0.039215 0.147968
  C 3.717693 0.541264 1.397687
  C 2.784419 0.991490 2.518627
  C 3.579179 1.476818 3.726698
  C 3.524173 -0.314140 -0.731952
  C 4.295176 -0.377059 -0.888927
  C 4.732331 -0.720813 -1.745799
  C 4.403919 -1.262473 -3.095621
  H 3.391483 -1.391339 -3.417021
  O 5.432731 -0.638018 -1.539893
  H 0.481960 0.292694 0.779462
  H 0.732188 -1.082605 -0.288491
  H 0.731970 0.547178 -0.943087
  H 4.369583 1.383736 1.139225
  H 4.369711 -0.245788 1.793803
  H 2.143656 0.164911 2.832258
  H 2.143565 1.805283 2.173347
  H 4.211066 0.684461 4.122985
  H 2.903139 1.794365 4.517372
  H 4.210935 2.323220 3.464676
  H 2.830824 -0.621258 -1.496586
  H 4.963486 -0.058882 -0.096458
  H 4.913625 -2.230140 -3.168336
  H 4.913778 -0.613605 -3.817084
  H 5.032450 -0.059902 -0.099161
 26
 0.000000
  C 0.981120 -0.071936 -0.128453
  C 3.158249 0.038206 0.145450
  C 3.763570 0.543271 1.402683
  C 2.814449 0.988871 2.512105
  C 3.591971 1.478061 3.729795
  C 3.582110 -0.313479 -0.730318
  C 4.310576 -0.377148 -0.889162
  C 4.729960 -0.720802 -1.745780
  C 4.400787 -1.262406 -3.095438
  H 3.388170 -1.391089 -3.416340
  O 5.381342 -0.639862 -1.544494
  H 0.414931 0.272654 0.729560
  H 0.684961 -1.101367 -0.335209
  H 0.684748 0.528416 -0.989807
  H 4.414425 1.388944 1.152193
  H 4.414550 -0.240579 1.806772
  H 2.173966 0.159145 2.817896
  H 2.173878 1.799517 2.158985
  H 4.222847 0.688806 4.133808
  H 2.904756 1.792257 4.512128
  H 4.222719 2.327565 3.475499
  H 2.881332 -0.618249 -1.489096
  H 4.991853 -0.062802 -0.106262
  H 4.910280 -2.230166 -3.168401
  H 4.910410 -0.613633 -3.817154
  H 4.855442 -0.029593 -0.023643
 26
 0.000000
  C 0.955928 -0.078630 -0.145119
  C 3.178016 0.037729 0.144262
  C 3.776988 0.543845 1.404112
  C 2.822282 0.987784 2.509400
  C 3.593653 1.478325 3.730455
  C 3.601134 -0.314117 -0.731907
  C 4.317360 -0.378229 -0.891856
  C 4.731318 -0.722693 -1.750492
  C 4.400618 -1.264171 -3.099828
  H 3.387639 -1.392463 -3.419741
  O 5.367726 -0.642646 -1.551429
  H 0.385416 0.264969 0.710426
  H 0.662465 -1.108575 -0.353155
  H 0.662253 0.521207 -1.007754
  H 4.427451 1.390652 1.156448
  H 4.427574 -0.238871 1.811028
  H 2.181924 0.156941 2.812409
  H 2.181838 1.797313 2.153498
  H 4.224144 0.690169 4.137207
  H 2.902499 1.791319 4.509795
  H 4.224018 2.328929 3.478898
  H 2.897827 -0.618078 -1.488669
  H 5.003323 -0.065296 -0.112486
  H 4.909666 -2.232129 -3.173285
  H 4.909788 -0.615597 -3.822042
  H 4.797604 -0.020729 -0.001552
 26
 0.000000
  C 0.816170 -0.108591 -0.219714
  C 3.290446 0.043704 0.159131
  C 3.856618 0.555030 1.431964
  C 2.873575 0.990288 2.515637
  C 3.613100 1.487588 3.753530
  C 3.708773 -0.310648 -0.723289
  C 4.359422 -0.377525 -0.890125
  C 4.740596 -0.728096 -1.763974
  C 4.394793 -1.268283 -3.110037
  H 3.378285 -1.392670 -3.420145
  O 5.296420 -0.654657 -1.581367
  H 0.223676 0.229799 0.622856
  H 0.536652 -1.141099 -0.434135
  H 0.536449 0.488681 -1.088738
  H 4.504828 1.407653 1.198781
  H 4.504946 -0.221871 1.853360
  H 2.234091 0.153713 2.804374
  H 2.234008 1.794086 2.145465
  H 4.241392 0.705067 4.174316
  H 2.901972 1.794299 4.517228
  H 4.241271 2.343827 3.516006
  H 2.989154 -0.609263 -1.466720
  H 5.074173 -0.073652 -0.133385
  H 4.899377 -2.238193 -3.188382
  H 4.899455 -0.621666 -3.837153
  H 4.464578 0.025289 0.113110
