17

H 1.4338346483981252 -0.07479237035344469 0.041230119676428145
C 2.503702 -0.08244 0.026218
C 3.219742 -0.595147 -0.980313
C 4.657341 -0.605989 -1.001596
C 5.377978 -1.121167 -2.012975
C 6.816075 -1.130187 -2.03068
C 7.533929 -1.642143 -3.035743
C 9.023838 -1.661836 -3.074396
H 3.003754 0.353017 0.881096
H 2.708735 -1.028583 -1.831209
H 5.162176 -0.171274 -0.148183
H 4.874603 -1.556225 -2.867069
H 7.322806 -0.695797 -1.1779
H 7.034773 -2.078266 -3.891911
H 9.458058 -1.208797 -2.185012
H 9.382799 -1.116045 -3.948285
H 9.382799 -2.689617 -3.146739
