 25
 0.000000
  C 0.961098 0.149257 0.415379
  C 2.434160 0.141003 0.396934
  C 3.230501 0.606126 1.553773
  C 2.467151 1.092250 2.779355
  H 3.164325 1.401645 3.549172
  C 3.040992 -0.326869 -0.766157
  C 4.424143 -0.412572 -0.979424
  C 5.090594 -0.860663 -2.094744
  C 4.626699 -1.381354 -3.390572
  C 3.145204 -1.509360 -3.709392
  H 3.023129 -1.911105 -4.709297
  H 6.171456 -0.842947 -2.050995
  H 0.544386 0.530679 1.340068
  H 0.573638 -0.858520 0.256089
  H 0.584272 0.755749 -0.409767
  H 3.887211 1.414499 1.212562
  H 3.893502 -0.210538 1.861263
  H 1.839271 0.302309 3.186468
  H 1.833629 1.941937 2.533048
  H 2.377215 -0.643554 -1.553472
  H 5.052110 -0.083544 -0.161292
  H 5.100908 -2.364661 -3.510920
  H 5.101114 -0.754894 -4.157867
  H 2.655502 -0.538720 -3.676462
  H 2.655403 -2.187327 -3.014065
 25
 3.159299
  C 0.963451 0.200409 0.419071
  C 2.412438 0.150027 0.400694
  C 3.217007 0.607170 1.555883
  C 2.455500 1.080524 2.784498
  H 3.162560 1.390103 3.549037
  C 3.024750 -0.325588 -0.763668
  C 4.420081 -0.416592 -0.973942
  C 5.081473 -0.870968 -2.097831
  C 4.621778 -1.387881 -3.391860
  C 3.141709 -1.510363 -3.713447
  H 3.029492 -1.911917 -4.717323
  H 6.163301 -0.850586 -2.034063
  H 0.523157 0.553774 1.334489
  H 0.781224 -0.840467 0.256601
  H 0.548514 0.744862 -0.422291
  H 3.864210 1.420725 1.210452
  H 3.894587 -0.199476 1.853867
  H 1.841866 0.285434 3.200875
  H 1.818927 1.931588 2.556076
  H 2.363102 -0.642454 -1.555514
  H 5.058784 -0.090900 -0.162608
  H 5.099725 -2.369265 -3.515190
  H 5.106957 -0.767394 -4.157609
  H 2.651009 -0.540676 -3.689173
  H 2.644171 -2.191830 -3.028121
 25
 8.320782
  C 0.957842 0.243921 0.396030
  C 2.411201 0.167360 0.395125
  C 3.222067 0.603967 1.547645
  C 2.454740 1.063316 2.783692
  H 3.157868 1.371200 3.547023
  C 3.029108 -0.322169 -0.764507
  C 4.412964 -0.422060 -0.964922
  C 5.071414 -0.878709 -2.080661
  C 4.611097 -1.389088 -3.380330
  C 3.130567 -1.497319 -3.704368
  H 3.018843 -1.891476 -4.705842
  H 6.148237 -0.868127 -2.010792
  H 0.487856 0.607493 1.301761
  H 0.977240 -0.837620 0.305334
  H 0.509692 0.663403 -0.491054
  H 3.850211 1.432828 1.195822
  H 3.916395 -0.192381 1.835527
  H 1.850712 0.257983 3.196864
  H 1.812325 1.913190 2.564367
  H 2.375177 -0.635830 -1.562429
  H 5.050982 -0.098303 -0.154206
  H 5.081239 -2.373444 -3.506597
  H 5.103774 -0.771769 -4.143250
  H 2.647628 -0.522393 -3.679543
  H 2.625604 -2.180852 -3.024807
 25
 15.199230
  C 0.958001 0.275761 0.396991
  C 2.404696 0.168524 0.384777
  C 3.217768 0.599581 1.547560
  C 2.452322 1.050856 2.782721
  H 3.157540 1.356158 3.550368
  C 3.019739 -0.325179 -0.774282
  C 4.401613 -0.425119 -0.969092
  C 5.063272 -0.880740 -2.075091
  C 4.610701 -1.390456 -3.376040
  C 3.131638 -1.498376 -3.708363
  H 3.024530 -1.893167 -4.715183
  H 6.143333 -0.871324 -1.999934
  H 0.486898 0.646741 1.292127
  H 1.120725 -0.798664 0.356924
  H 0.479193 0.626551 -0.504040
  H 3.838267 1.430952 1.196005
  H 3.913449 -0.193813 1.833569
  H 1.849383 0.243160 3.190769
  H 1.810672 1.901378 2.566839
  H 2.367381 -0.637368 -1.574296
  H 5.035022 -0.100700 -0.156254
  H 5.080439 -2.375863 -3.499699
  H 5.106818 -0.772033 -4.136595
  H 2.650017 -0.524500 -3.685336
  H 2.624243 -2.181924 -3.033187
 25
 21.250306
  C 0.947783 0.306640 0.399620
  C 2.403679 0.165262 0.381115
  C 3.214753 0.596812 1.552485
  C 2.446743 1.044309 2.791400
  H 3.151961 1.347936 3.558925
  C 3.017028 -0.329543 -0.777318
  C 4.401293 -0.428411 -0.971581
  C 5.066233 -0.885175 -2.080520
  C 4.614402 -1.395522 -3.383950
  C 3.135024 -1.503921 -3.715889
  H 3.028338 -1.897752 -4.722657
  H 6.145586 -0.875306 -2.004553
  H 0.464645 0.680855 1.287194
  H 1.236922 -0.778751 0.382185
  H 0.447241 0.619105 -0.506833
  H 3.831998 1.432963 1.202903
  H 3.914535 -0.195771 1.837201
  H 1.845006 0.235265 3.198362
  H 1.804667 1.895030 2.579091
  H 2.364283 -0.640713 -1.576810
  H 5.034667 -0.102148 -0.156471
  H 5.083999 -2.380021 -3.507729
  H 5.109454 -0.776694 -4.143559
  H 2.652406 -0.529508 -3.692082
  H 2.627690 -2.189073 -3.040787
 25
 25.338688
  C 0.956214 0.337424 0.405775
  C 2.390258 0.160241 0.391388
  C 3.211296 0.587478 1.551408
  C 2.442286 1.040666 2.781784
  H 3.148997 1.343368 3.552741
  C 3.015440 -0.336736 -0.778925
  C 4.397485 -0.437366 -0.971873
  C 5.062730 -0.887554 -2.071953
  C 4.616591 -1.393386 -3.387108
  C 3.136879 -1.498741 -3.727481
  H 3.034971 -1.887529 -4.741705
  H 6.145970 -0.879606 -1.990014
  H 0.475147 0.733701 1.280568
  H 1.325732 -0.747924 0.478710
  H 0.435494 0.535989 -0.512471
  H 3.822026 1.420126 1.193518
  H 3.904403 -0.204063 1.837053
  H 1.834681 0.238463 3.189162
  H 1.808158 1.893856 2.563960
  H 2.363521 -0.639282 -1.579228
  H 5.028471 -0.116771 -0.157511
  H 5.084380 -2.379530 -3.513683
  H 5.114257 -0.768978 -4.141990
  H 2.656212 -0.525188 -3.700407
  H 2.627083 -2.187529 -3.060816
 25
 27.831526
  C 0.950748 0.352862 0.388068
  C 2.377954 0.149326 0.378770
  C 3.208626 0.581578 1.550265
  C 2.444870 1.045946 2.800150
  H 3.159029 1.336072 3.566424
  C 3.003097 -0.342269 -0.788727
  C 4.388680 -0.441385 -0.974890
  C 5.064915 -0.893790 -2.082939
  C 4.624275 -1.393319 -3.392563
  C 3.147343 -1.494275 -3.729909
  H 3.044336 -1.877172 -4.738272
  H 6.140714 -0.887252 -1.999002
  H 0.467359 0.774053 1.253640
  H 1.391622 -0.731287 0.547418
  H 0.420355 0.463051 -0.539250
  H 3.827386 1.417643 1.186481
  H 3.902629 -0.223339 1.835442
  H 1.827469 0.248451 3.212252
  H 1.820865 1.913205 2.591744
  H 2.348809 -0.642434 -1.594752
  H 5.019545 -0.121461 -0.152002
  H 5.088562 -2.377841 -3.519880
  H 5.120699 -0.768020 -4.143435
  H 2.668333 -0.518261 -3.699248
  H 2.636590 -2.185215 -3.063111
 25
 29.766674
  C 0.957701 0.373577 0.394714
  C 2.379894 0.149063 0.390027
  C 3.208220 0.578102 1.554540
  C 2.441262 1.038255 2.786778
  H 3.148842 1.319028 3.559383
  C 3.007101 -0.342791 -0.784326
  C 4.392335 -0.443113 -0.972902
  C 5.066439 -0.890650 -2.073136
  C 4.627440 -1.393330 -3.397159
  C 3.144257 -1.496996 -3.744116
  H 3.045412 -1.881066 -4.761209
  H 6.148284 -0.882798 -1.984566
  H 0.474381 0.819317 1.253533
  H 1.457380 -0.703125 0.623260
  H 0.408182 0.405359 -0.540987
  H 3.827764 1.406739 1.199151
  H 3.888972 -0.224077 1.839866
  H 1.815837 0.247579 3.187611
  H 1.829532 1.908370 2.575541
  H 2.354048 -0.637039 -1.582126
  H 5.022130 -0.126135 -0.152489
  H 5.094655 -2.380558 -3.524298
  H 5.126930 -0.763317 -4.147558
  H 2.662799 -0.520304 -3.713980
  H 2.630709 -2.191113 -3.079928
 25
 31.396674
  C 0.964958 0.382040 0.377179
  C 2.376557 0.141614 0.384264
  C 3.213225 0.571955 1.552743
  C 2.438829 1.039858 2.796878
  H 3.155307 1.315088 3.583581
  C 3.005100 -0.349033 -0.792282
  C 4.383824 -0.447121 -0.976003
  C 5.063011 -0.892785 -2.078698
  C 4.626877 -1.390993 -3.397286
  C 3.151000 -1.493156 -3.739473
  H 3.050236 -1.874840 -4.755710
  H 6.146497 -0.883970 -1.989797
  H 0.477476 0.854373 1.220826
  H 1.508641 -0.682296 0.664260
  H 0.409685 0.340808 -0.549692
  H 3.842976 1.402827 1.197694
  H 3.890878 -0.242463 1.838040
  H 1.798878 0.248916 3.196765
  H 1.832180 1.923712 2.585258
  H 2.351811 -0.643104 -1.591652
  H 5.010773 -0.130233 -0.152847
  H 5.092229 -2.375369 -3.526192
  H 5.123188 -0.760637 -4.144951
  H 2.672795 -0.521305 -3.706214
  H 2.641906 -2.184448 -3.078544
 25
 32.987405
  C 0.953187 0.392219 0.374045
  C 2.371931 0.134877 0.393160
  C 3.217167 0.574015 1.565174
  C 2.452125 1.040479 2.789955
  H 3.153328 1.305712 3.561253
  C 3.002394 -0.354156 -0.788737
  C 4.387316 -0.452779 -0.971191
  C 5.069359 -0.894231 -2.073965
  C 4.637819 -1.389402 -3.399071
  C 3.151911 -1.491192 -3.748709
  H 3.055120 -1.867704 -4.761436
  H 6.141295 -0.884767 -1.982145
  H 0.464056 0.876039 1.200431
  H 1.541759 -0.672285 0.703954
  H 0.397950 0.297880 -0.541512
  H 3.843565 1.394661 1.214685
  H 3.888368 -0.238807 1.853582
  H 1.811188 0.259457 3.185393
  H 1.857491 1.921404 2.577177
  H 2.345721 -0.648461 -1.591605
  H 5.013687 -0.139383 -0.145111
  H 5.106241 -2.377979 -3.529350
  H 5.138669 -0.752634 -4.145280
  H 2.668559 -0.510410 -3.714202
  H 2.635143 -2.191797 -3.085826
 25
 34.509243
  C 0.957915 0.398565 0.374453
  C 2.372590 0.125506 0.400786
  C 3.219532 0.571763 1.565898
  C 2.450184 1.045168 2.790649
  H 3.160798 1.313059 3.575223
  C 3.005197 -0.363043 -0.786854
  C 4.387366 -0.462260 -0.971014
  C 5.069494 -0.899485 -2.076866
  C 4.638463 -1.388324 -3.403051
  C 3.157943 -1.487283 -3.752619
  H 3.062001 -1.858216 -4.762830
  H 6.146673 -0.890703 -1.984670
  H 0.470684 0.885880 1.192573
  H 1.580224 -0.664312 0.730884
  H 0.398938 0.267211 -0.536070
  H 3.845558 1.386912 1.214212
  H 3.884483 -0.237474 1.855737
  H 1.795343 0.256709 3.191438
  H 1.851126 1.942438 2.569992
  H 2.352167 -0.653593 -1.583286
  H 5.011558 -0.154589 -0.148738
  H 5.105644 -2.376035 -3.537050
  H 5.139305 -0.748975 -4.145669
  H 2.678270 -0.512037 -3.715040
  H 2.643251 -2.186348 -3.096828
 25
 36.127233
  C 0.957275 0.399342 0.360767
  C 2.368401 0.114610 0.399817
  C 3.221873 0.572620 1.568403
  C 2.455014 1.048558 2.786092
  H 3.163117 1.316001 3.569982
  C 3.004637 -0.370481 -0.786096
  C 4.386415 -0.467636 -0.962490
  C 5.074050 -0.901723 -2.071223
  C 4.642613 -1.385356 -3.399826
  C 3.159121 -1.480589 -3.747715
  H 3.058382 -1.853265 -4.774559
  H 6.156313 -0.893490 -1.977079
  H 0.454873 0.897884 1.191936
  H 1.609853 -0.664379 0.739328
  H 0.407092 0.240556 -0.533063
  H 3.850458 1.391915 1.212119
  H 3.894657 -0.245856 1.866780
  H 1.805159 0.272764 3.182104
  H 1.867337 1.933121 2.565829
  H 2.344768 -0.665756 -1.598045
  H 5.009577 -0.161624 -0.132029
  H 5.108491 -2.374206 -3.537925
  H 5.143665 -0.743196 -4.140832
  H 2.681455 -0.504316 -3.704284
  H 2.645269 -2.179899 -3.093177
 25
 37.361683
  C 0.950602 0.409896 0.362397
  C 2.376203 0.103688 0.408845
  C 3.230216 0.571659 1.568097
  C 2.457522 1.056996 2.795058
  H 3.162733 1.326111 3.576404
  C 3.010548 -0.380086 -0.784189
  C 4.387449 -0.478896 -0.962670
  C 5.072605 -0.907267 -2.070307
  C 4.644486 -1.384365 -3.403308
  C 3.169718 -1.477652 -3.756734
  H 3.075326 -1.841206 -4.775080
  H 6.145703 -0.900345 -1.975362
  H 0.459399 0.897435 1.178063
  H 1.643444 -0.678453 0.762478
  H 0.387325 0.226394 -0.537835
  H 3.854761 1.387719 1.205238
  H 3.897048 -0.237069 1.865914
  H 1.806605 0.284776 3.194031
  H 1.869432 1.942249 2.571686
  H 2.356366 -0.669047 -1.584381
  H 5.011215 -0.177854 -0.131002
  H 5.107043 -2.365984 -3.544026
  H 5.145128 -0.742357 -4.135710
  H 2.692135 -0.501465 -3.710366
  H 2.653052 -2.180954 -3.107692
 25
 38.420965
  C 0.952218 0.414931 0.360775
  C 2.376145 0.082792 0.421992
  C 3.233128 0.575612 1.569994
  C 2.461327 1.069139 2.784072
  H 3.166506 1.347562 3.565016
  C 3.014771 -0.396767 -0.776253
  C 4.387817 -0.498040 -0.952029
  C 5.074539 -0.917490 -2.064032
  C 4.647849 -1.378416 -3.402920
  C 3.172946 -1.463563 -3.760581
  H 3.079680 -1.815987 -4.786937
  H 6.150937 -0.913426 -1.966916
  H 0.458900 0.897917 1.178514
  H 1.679429 -0.707176 0.787875
  H 0.385167 0.207176 -0.532563
  H 3.853963 1.393787 1.192660
  H 3.907343 -0.228843 1.880438
  H 1.809564 0.297693 3.190214
  H 1.871950 1.952187 2.549842
  H 2.358646 -0.683024 -1.581010
  H 5.010580 -0.204954 -0.117759
  H 5.109597 -2.362760 -3.553673
  H 5.152904 -0.728134 -4.128038
  H 2.697357 -0.485543 -3.703970
  H 2.652454 -2.174177 -3.120837
