 20
 0.000000
  C 0.991705 0.129669 0.372750
  C 2.463206 0.144736 0.413349
  C 3.211604 0.620587 1.597797
  C 2.395333 1.100668 2.790409
  H 3.063556 1.419356 3.584644
  C 3.129917 -0.311800 -0.720762
  C 4.514778 -0.378929 -0.889440
  C 5.101794 -0.842840 -2.045282
  H 4.540254 -1.189799 -2.904548
  O 6.384250 -0.920150 -2.246203
  H 0.530264 0.495699 1.281493
  H 0.637869 -0.884694 0.180628
  H 0.639467 0.729313 -0.468333
  H 3.872930 1.434513 1.280243
  H 3.871712 -0.187419 1.932483
  H 1.763060 0.306776 3.180926
  H 1.764427 1.944889 2.522491
  H 2.515702 -0.644022 -1.546983
  H 5.159449 -0.054505 -0.083999
  H 6.930556 -0.614266 -1.494133
 20
 16.084714
  C 0.974961 0.137279 0.391354
  C 2.444156 0.153830 0.435948
  C 3.188137 0.630112 1.621661
  C 2.367939 1.109252 2.811972
  H 3.034309 1.428527 3.607921
  C 3.114901 -0.302616 -0.697747
  C 4.488404 -0.366699 -0.858983
  C 5.125216 -0.875572 -2.126189
  H 4.565077 -1.220376 -2.979136
  O 6.536844 -0.959338 -2.344534
  H 0.511021 0.502872 1.298938
  H 0.622802 -0.877397 0.197647
  H 0.624545 0.736129 -0.451092
  H 3.849749 1.444416 1.305764
  H 3.848423 -0.177119 1.957771
  H 1.735822 0.314860 3.201539
  H 1.737304 1.953280 2.543096
  H 2.504175 -0.635953 -1.526481
  H 5.134495 -0.043735 -0.057791
  H 7.073201 -0.652975 -1.592388
 20
 48.568839
  C 0.976291 0.133196 0.380079
  C 2.446927 0.158624 0.448453
  C 3.180607 0.635304 1.635401
  C 2.352019 1.112498 2.820184
  H 3.018782 1.432041 3.617604
  C 3.124816 -0.290984 -0.666984
  C 4.487976 -0.335849 -0.780921
  C 5.076354 -0.906254 -2.200587
  H 4.507497 -1.251839 -3.053520
  O 6.621829 -0.976666 -2.391375
  H 0.498629 0.497278 1.282468
  H 0.630958 -0.882308 0.178545
  H 0.633745 0.727700 -0.468769
  H 3.844600 1.449475 1.321201
  H 3.842749 -0.171017 1.972794
  H 1.723516 0.318299 3.214558
  H 1.725625 1.960176 2.554867
  H 2.529248 -0.625261 -1.497326
  H 5.213176 -0.038657 -0.045271
  H 7.031315 -0.641807 -1.569937
 20
 87.492363
  C 0.959669 0.138030 0.395474
  C 2.428974 0.170986 0.478139
  C 3.154699 0.650781 1.670552
  C 2.323969 1.127492 2.856849
  H 2.989604 1.448200 3.654667
  C 3.132685 -0.284672 -0.654503
  C 4.476600 -0.322829 -0.749809
  C 5.076757 -0.945061 -2.303130
  H 4.541387 -1.289768 -3.162211
  O 6.749005 -1.006092 -2.459850
  H 0.465168 0.498261 1.290306
  H 0.623601 -0.880369 0.178004
  H 0.624106 0.722521 -0.466596
  H 3.824139 1.462989 1.357907
  H 3.824751 -0.151290 2.006984
  H 1.697286 0.332426 3.252134
  H 1.697160 1.974920 2.592083
  H 2.542534 -0.620757 -1.490863
  H 5.252091 -0.049317 -0.067275
  H 7.058104 -0.666603 -1.613500
 20
 126.846810
  C 0.952356 0.151369 0.428755
  C 2.407047 0.184061 0.510893
  C 3.121855 0.662531 1.699855
  C 2.282384 1.135368 2.876285
  H 2.939835 1.458051 3.678911
  C 3.117316 -0.274793 -0.629570
  C 4.455308 -0.313736 -0.726398
  C 5.101403 -0.982945 -2.397619
  H 4.570768 -1.329933 -3.263189
  O 6.898505 -1.048065 -2.565039
  H 0.458780 0.511295 1.322725
  H 0.618208 -0.863919 0.211102
  H 0.618723 0.733364 -0.431373
  H 3.789924 1.474071 1.392051
  H 3.790532 -0.135657 2.039417
  H 1.655043 0.338059 3.265707
  H 1.654949 1.980361 2.605619
  H 2.525077 -0.611888 -1.469014
  H 5.238390 -0.042727 -0.049709
  H 7.206503 -0.706769 -1.713418
 20
 163.586646
  C 0.934406 0.156508 0.441549
  C 2.389580 0.194801 0.537637
  C 3.097231 0.674182 1.728902
  C 2.251185 1.147140 2.905536
  H 2.906016 1.470806 3.710576
  C 3.110628 -0.263283 -0.600928
  C 4.439677 -0.296958 -0.684248
  C 5.108577 -1.018403 -2.485800
  H 4.589342 -1.367632 -3.357249
  O 7.026881 -1.082086 -2.650168
  H 0.430065 0.514924 1.331763
  H 0.604218 -0.863567 0.217257
  H 0.604695 0.737283 -0.426672
  H 3.768906 1.487308 1.422718
  H 3.769500 -0.124041 2.070757
  H 1.623794 0.349215 3.293946
  H 1.623757 1.991857 2.633678
  H 2.523645 -0.600817 -1.441931
  H 5.246374 -0.036664 -0.034108
  H 7.296412 -0.738251 -1.791731
 20
 195.718549
  C 0.922989 0.163604 0.459376
  C 2.371509 0.207884 0.569947
  C 3.067165 0.687987 1.763035
  C 2.212823 1.157277 2.930963
  H 2.860772 1.482615 3.740109
  C 3.107617 -0.250557 -0.569793
  C 4.425265 -0.279466 -0.641034
  C 5.114753 -1.054542 -2.575785
  H 4.602615 -1.408742 -3.459899
  O 7.150897 -1.119818 -2.743799
  H 0.408777 0.519580 1.343726
  H 0.599412 -0.854785 0.229999
  H 0.599657 0.739554 -0.411323
  H 3.739582 1.500736 1.462373
  H 3.740328 -0.106049 2.108477
  H 1.585583 0.357667 3.314911
  H 1.585353 2.000056 2.654855
  H 2.524344 -0.589731 -1.415161
  H 5.256643 -0.030513 -0.019111
  H 7.392583 -0.772249 -1.875008
 20
 222.694774
  C 0.908788 0.169574 0.474335
  C 2.353299 0.221054 0.602572
  C 3.036748 0.702278 1.798449
  C 2.170379 1.169195 2.960765
  H 2.811126 1.496686 3.775276
  C 3.105573 -0.235816 -0.533390
  C 4.414863 -0.259776 -0.592319
  C 5.121216 -1.090302 -2.664770
  H 4.618921 -1.447696 -3.557422
  O 7.270788 -1.159504 -2.842633
  H 0.382231 0.523523 1.353709
  H 0.590998 -0.852058 0.238532
  H 0.591113 0.743311 -0.403249
  H 3.711949 1.516818 1.502754
  H 3.712772 -0.089560 2.148625
  H 1.542641 0.367399 3.340297
  H 1.542301 2.010442 2.680069
  H 2.527622 -0.576369 -1.382106
  H 5.271964 -0.023760 -0.002904
  H 7.487168 -0.812215 -1.972917
 20
 142.277248
  C 1.010453 0.175055 0.434667
  C 2.413541 0.273548 0.788075
  C 2.890974 0.738376 2.106929
  C 1.841305 1.233383 3.106387
  H 2.337892 1.512192 4.041399
  C 3.362600 -0.092896 -0.226258
  C 4.658645 0.043374 -0.196604
  C 5.543876 -1.450504 -3.203425
  H 4.955624 -1.730736 -4.098305
  O 6.770408 -1.372147 -3.589367
  H 0.336765 0.429164 1.244530
  H 0.793680 -0.821562 0.066755
  H 0.802091 0.819512 -0.416281
  H 3.649006 1.510234 1.960964
  H 3.443774 -0.093715 2.541231
  H 1.102037 0.454895 3.343419
  H 1.323217 2.111586 2.732497
  H 2.915726 -0.475272 -1.138141
  H 5.539459 0.291245 0.320630
  H 7.362539 -1.154991 -2.826475
 20
 141.550396
  C 1.128234 0.121078 0.367226
  C 2.497640 0.283622 0.810398
  C 2.865179 0.787992 2.132920
  C 1.734428 1.224791 3.051502
  H 2.150373 1.580722 3.988352
  C 3.534601 -0.068750 -0.125880
  C 4.829014 0.036890 0.024517
  C 5.380562 -1.317503 -3.090414
  H 4.582139 -1.499869 -3.845409
  O 6.508221 -1.459608 -3.712154
  H 0.393121 0.355579 1.131238
  H 0.971183 -0.892618 -0.010122
  H 0.952800 0.753379 -0.507528
  H 3.578624 1.611690 2.006231
  H 3.457501 0.003265 2.630488
  H 1.063823 0.401654 3.281838
  H 1.162428 2.034661 2.615319
  H 3.177381 -0.453195 -1.077716
  H 5.691636 0.262452 0.593856
  H 7.281921 -1.321970 -3.124001
