 16
 0.000000
  C 1.018181 0.130890 0.385195
  C 2.480545 0.132046 0.380415
  C 3.216872 0.603798 1.550514
  H 2.549107 0.922735 2.344866
  C 3.134103 -0.328826 -0.764185
  C 4.532143 -0.390037 -0.928837
  C 5.097250 -0.855344 -2.075961
  H 4.487483 -1.198102 -2.898077
  H 6.166220 -0.898251 -2.202170
  H 0.599218 0.495560 1.318483
  H 0.640488 -0.874066 0.179005
  H 0.638672 0.735351 -0.443204
  H 3.877112 1.430352 1.283500
  H 3.878316 -0.176539 1.929985
  H 2.525014 -0.666500 -1.593122
  H 5.170004 -0.055735 -0.122920
 16
 0.400960
  C 1.022846 0.207500 0.343164
  C 2.480999 0.091483 0.401100
  C 3.208744 0.511560 1.600194
  H 2.539919 0.835625 2.391871
  C 3.142723 -0.421805 -0.718418
  C 4.526414 -0.333024 -0.957203
  C 5.088409 -0.818140 -2.095684
  H 4.501507 -1.339125 -2.834804
  H 6.139689 -0.704267 -2.295365
  H 0.612534 0.746669 1.191961
  H 0.574467 -0.788077 0.307070
  H 0.717291 0.684936 -0.590000
  H 3.890453 1.330423 1.358493
  H 3.849274 -0.291384 1.967199
  H 2.540751 -0.881665 -1.491443
  H 5.151878 0.176349 -0.238541
 16
 2.174143
  C 1.042715 0.237984 0.316266
  C 2.489756 0.039833 0.439739
  C 3.197844 0.452568 1.652664
  H 2.540051 0.927891 2.373161
  C 3.165267 -0.533529 -0.642764
  C 4.503513 -0.283497 -0.987489
  C 5.067662 -0.795147 -2.113075
  H 4.543995 -1.507176 -2.732801
  H 6.061860 -0.512067 -2.421418
  H 0.632658 0.807754 1.140065
  H 0.530060 -0.722644 0.255231
  H 0.825016 0.738554 -0.628851
  H 4.023587 1.125881 1.410333
  H 3.677411 -0.411603 2.117192
  H 2.589502 -1.143341 -1.328102
  H 5.073996 0.408460 -0.386111
 16
 5.338801
  C 1.086188 0.303586 0.258944
  C 2.505229 0.005159 0.469278
  C 3.188164 0.411008 1.695152
  H 2.547728 0.980130 2.360911
  C 3.200797 -0.626600 -0.569773
  C 4.456593 -0.220279 -1.039131
  C 5.032551 -0.748395 -2.150713
  H 4.613863 -1.604847 -2.648600
  H 5.926707 -0.323776 -2.571886
  H 0.680022 0.930199 1.040650
  H 0.494652 -0.612318 0.189048
  H 0.982033 0.793750 -0.711166
  H 4.098518 0.972447 1.472140
  H 3.546986 -0.479428 2.218026
  H 2.677017 -1.381346 -1.144461
  H 4.937627 0.619507 -0.551918
 16
 9.847364
  C 1.146664 0.358497 0.199444
  C 2.525220 -0.021739 0.509197
  C 3.168442 0.370027 1.756991
  H 2.529882 0.979064 2.388136
  C 3.249622 -0.699974 -0.490599
  C 4.399260 -0.179478 -1.086970
  C 4.978711 -0.727541 -2.188479
  H 4.651504 -1.673537 -2.586425
  H 5.773093 -0.222834 -2.708516
  H 0.734618 1.044034 0.932234
  H 0.494991 -0.514822 0.122931
  H 1.152075 0.808382 -0.795884
  H 4.116787 0.878136 1.565386
  H 3.462504 -0.531843 2.300875
  H 2.796074 -1.575687 -0.941640
  H 4.789747 0.754007 -0.703876
 16
 15.530857
  C 1.198192 0.450047 0.166258
  C 2.539614 0.005411 0.520791
  C 3.139814 0.308576 1.809070
  H 2.500538 0.911008 2.445948
  C 3.284929 -0.698997 -0.464057
  C 4.322986 -0.125204 -1.188277
  C 4.962789 -0.747862 -2.218885
  H 4.750902 -1.771312 -2.477891
  H 5.689753 -0.227738 -2.815864
  H 0.791192 1.157545 0.881125
  H 0.512898 -0.400199 0.093421
  H 1.234295 0.871794 -0.840138
  H 4.114271 0.788571 1.676175
  H 3.389114 -0.629709 2.312458
  H 2.943006 -1.690082 -0.740507
  H 4.593874 0.895949 -0.952281
 16
 21.675789
  C 1.278377 0.569461 0.137414
  C 2.562649 0.041312 0.539517
  C 3.087777 0.238361 1.869821
  H 2.442725 0.836838 2.505493
  C 3.344997 -0.681223 -0.431650
  C 4.238435 -0.091810 -1.308380
  C 4.918088 -0.778605 -2.277675
  H 4.802968 -1.840825 -2.401674
  H 5.585082 -0.272439 -2.950397
  H 0.869933 1.285672 0.843277
  H 0.573567 -0.266512 0.053194
  H 1.320767 0.967620 -0.877607
  H 4.089790 0.675201 1.808008
  H 3.283253 -0.731839 2.338250
  H 3.158460 -1.744330 -0.515079
  H 4.407760 0.971864 -1.218583
 16
 13.978805
  C 1.401463 0.695678 0.083580
  C 2.623127 0.056934 0.551662
  C 3.034445 0.150584 1.947927
  H 2.355210 0.750334 2.544528
  C 3.426732 -0.655967 -0.375460
  C 4.139104 -0.074035 -1.425421
  C 4.813715 -0.815717 -2.346946
  H 4.779975 -1.891864 -2.338154
  H 5.398726 -0.348091 -3.118470
  H 1.016473 1.440195 0.773637
  H 0.651498 -0.099888 -0.005022
  H 1.482628 1.077798 -0.933620
  H 4.045922 0.558657 1.995549
  H 3.136222 -0.843045 2.393724
  H 3.459213 -1.735666 -0.279637
  H 4.193630 1.004780 -1.466348
 16
 7.031244
  C 1.524170 0.816800 0.049756
  C 2.684842 0.094083 0.561487
  C 2.966388 0.067057 1.998843
  H 2.251763 0.650781 2.569623
  C 3.515796 -0.604266 -0.328497
  C 4.061505 -0.082902 -1.514621
  C 4.711983 -0.873707 -2.408095
  H 4.758782 -1.942521 -2.284000
  H 5.185856 -0.460081 -3.280172
  H 1.183864 1.602538 0.717837
  H 0.712207 0.082328 -0.019176
  H 1.654049 1.164203 -0.973354
  H 3.976039 0.440382 2.178736
  H 2.984647 -0.959777 2.373876
  H 3.764069 -1.631397 -0.082835
  H 4.008111 0.984847 -1.676265
 16
 7.615403
  C 1.632559 0.751337 -0.043541
  C 2.745622 0.065498 0.613378
  C 2.896844 0.073770 2.069271
  H 2.131558 0.668321 2.555721
  C 3.672851 -0.561768 -0.219600
  C 4.072079 -0.047555 -1.476850
  C 4.525426 -0.839662 -2.477146
  H 4.492848 -1.913971 -2.403622
  H 4.870618 -0.423959 -3.408059
  H 1.260068 1.603618 0.517281
  H 0.806587 0.038256 -0.136207
  H 1.908568 0.976181 -1.072911
  H 3.888120 0.438555 2.340944
  H 2.861764 -0.944928 2.462626
  H 4.062094 -1.532271 0.063645
  H 4.111349 1.028264 -1.587267
