 23
 0.000000
  C 0.926861 0.045051 0.297642
  C 2.413461 0.063321 0.060562
  C 3.235471 -0.008143 1.327798
  H 2.588233 -0.053110 2.200475
  C 3.003961 0.129866 -1.146298
  C 2.358022 0.206528 -2.515687
  C 0.843930 0.218825 -2.692095
  H 0.628126 0.278221 -3.759317
  C 4.461602 0.134062 -1.228262
  C 5.206970 0.194825 -2.330717
  O 6.566013 0.194419 -2.336382
  H 0.713269 -0.011089 1.362522
  H 0.462934 -0.816624 -0.175579
  H 0.450882 0.944504 -0.084502
  H 3.875574 0.867559 1.435225
  H 3.869150 -0.894987 1.339304
  H 2.746252 -0.642758 -3.087444
  H 2.748738 1.112586 -2.990367
  H 0.387288 1.080042 -2.215393
  H 0.383907 -0.687874 -2.313052
  H 5.001548 0.081791 -0.293334
  H 4.832085 0.250783 -3.338963
  H 6.894532 0.144046 -1.429292
 23
 4.117460
  C 0.936582 0.063276 0.312627
  C 2.398113 0.064631 0.069936
  C 3.235570 -0.000328 1.335474
  H 2.598264 -0.066367 2.211140
  C 2.989842 0.130560 -1.140655
  C 2.344600 0.207513 -2.513850
  C 0.830533 0.231924 -2.702365
  H 0.624152 0.290740 -3.770415
  C 4.447268 0.125481 -1.221832
  C 5.195325 0.182019 -2.324647
  O 6.553633 0.178012 -2.327479
  H 0.687813 -0.026977 1.361622
  H 0.693203 -0.822035 -0.211241
  H 0.418151 0.922076 -0.092405
  H 3.854972 0.888635 1.445613
  H 3.888237 -0.871898 1.337726
  H 2.729469 -0.646080 -3.082025
  H 2.742867 1.109952 -2.989208
  H 0.378719 1.099136 -2.233488
  H 0.355456 -0.668507 -2.327346
  H 4.985641 0.072903 -0.285815
  H 4.822874 0.238392 -3.333644
  H 6.879064 0.127935 -1.419624
 23
 11.769861
  C 0.914899 0.056322 0.312391
  C 2.396894 0.071310 0.079486
  C 3.236525 0.019797 1.348840
  H 2.593420 -0.076809 2.225219
  C 2.996044 0.136027 -1.140878
  C 2.349295 0.210913 -2.508540
  C 0.835041 0.260594 -2.694043
  H 0.628511 0.313749 -3.765502
  C 4.450119 0.116058 -1.233109
  C 5.170557 0.162152 -2.318776
  O 6.527117 0.152789 -2.333247
  H 0.630097 -0.072383 1.361907
  H 0.909002 -0.846191 -0.239334
  H 0.348333 0.869045 -0.146057
  H 3.823216 0.931941 1.468938
  H 3.921578 -0.830216 1.347969
  H 2.720572 -0.653255 -3.070859
  H 2.760320 1.103083 -2.992276
  H 0.400598 1.143969 -2.233347
  H 0.339009 -0.627400 -2.308926
  H 4.997356 0.066823 -0.303527
  H 4.789097 0.215449 -3.321979
  H 6.857190 0.106623 -1.432866
 23
 21.522472
  C 0.910920 0.045579 0.302164
  C 2.387426 0.076431 0.068685
  C 3.215095 0.028836 1.346140
  H 2.571336 -0.091148 2.206820
  C 2.989445 0.140097 -1.136988
  C 2.335741 0.209208 -2.504424
  C 0.822041 0.292422 -2.668894
  H 0.601201 0.330668 -3.731677
  C 4.445939 0.115657 -1.221941
  C 5.193217 0.146993 -2.330754
  O 6.555383 0.135960 -2.336443
  H 0.627358 -0.078035 1.322025
  H 1.090513 -0.867457 -0.231368
  H 0.316203 0.782889 -0.198009
  H 3.773846 0.954367 1.479674
  H 3.919944 -0.800295 1.346439
  H 2.681302 -0.669224 -3.058848
  H 2.759523 1.083978 -3.004735
  H 0.419903 1.196907 -2.220083
  H 0.309908 -0.573000 -2.257978
  H 4.986675 0.080216 -0.289801
  H 4.819325 0.185087 -3.339906
  H 6.877228 0.104571 -1.438535
 23
 32.190185
  C 0.899892 0.058231 0.342858
  C 2.387809 0.073943 0.070276
  C 3.222917 0.023867 1.331682
  H 2.584541 -0.107350 2.203137
  C 2.983784 0.139280 -1.140770
  C 2.332256 0.208437 -2.518962
  C 0.817850 0.298026 -2.697513
  H 0.605405 0.333650 -3.767544
  C 4.435906 0.114349 -1.218656
  C 5.185897 0.142804 -2.323812
  O 6.546393 0.131145 -2.324128
  H 0.611877 -0.078002 1.383169
  H 1.210673 -0.845298 -0.208194
  H 0.270641 0.775033 -0.159206
  H 3.775033 0.953440 1.463213
  H 3.936475 -0.800378 1.318600
  H 2.678435 -0.674662 -3.070705
  H 2.763978 1.082366 -3.020300
  H 0.417379 1.204075 -2.256958
  H 0.297947 -0.562574 -2.288348
  H 4.975253 0.081022 -0.276471
  H 4.815272 0.177909 -3.334295
  H 6.871386 0.101887 -1.406134
 23
 40.938389
  C 0.886825 0.071649 0.339526
  C 2.371107 0.067627 0.070999
  C 3.206185 0.008335 1.343004
  H 2.568453 -0.124993 2.206332
  C 2.987372 0.138268 -1.135142
  C 2.344544 0.207122 -2.511054
  C 0.831932 0.306253 -2.687700
  H 0.616372 0.336041 -3.753366
  C 4.439584 0.118249 -1.218064
  C 5.176663 0.140517 -2.334978
  O 6.530233 0.133377 -2.351901
  H 0.605076 -0.052798 1.368537
  H 1.302584 -0.829192 -0.167417
  H 0.251899 0.740041 -0.212670
  H 3.750712 0.940088 1.476482
  H 3.920639 -0.811105 1.334478
  H 2.685491 -0.679717 -3.060205
  H 2.783538 1.074466 -3.016824
  H 0.442132 1.218739 -2.253025
  H 0.308791 -0.546882 -2.271295
  H 4.989421 0.097188 -0.285088
  H 4.792789 0.163116 -3.339342
  H 6.861827 0.115860 -1.442463
 23
 47.526009
  C 0.885806 0.084787 0.357203
  C 2.365361 0.068205 0.060057
  C 3.208045 -0.003487 1.319538
  H 2.580781 -0.145595 2.191669
  C 2.981431 0.143272 -1.148880
  C 2.333346 0.210428 -2.529431
  C 0.817526 0.312254 -2.694777
  H 0.592074 0.333693 -3.760019
  C 4.431394 0.121484 -1.214740
  C 5.184707 0.136244 -2.316395
  O 6.564187 0.130807 -2.311363
  H 0.626947 -0.020712 1.394540
  H 1.376473 -0.815269 -0.116201
  H 0.237142 0.704096 -0.219071
  H 3.751672 0.928654 1.453877
  H 3.924110 -0.821815 1.293021
  H 2.667558 -0.681066 -3.076641
  H 2.771688 1.074035 -3.042880
  H 0.432615 1.231225 -2.264276
  H 0.295841 -0.538424 -2.265655
  H 4.968790 0.107510 -0.273111
  H 4.815149 0.150707 -3.331667
  H 6.879761 0.121920 -1.404982
 23
 52.268604
  C 0.881602 0.103277 0.348637
  C 2.364761 0.064008 0.050922
  C 3.191670 -0.017618 1.315544
  H 2.553790 -0.164252 2.181407
  C 2.993266 0.144877 -1.161121
  C 2.339933 0.212152 -2.528921
  C 0.824837 0.312645 -2.670559
  H 0.581352 0.330340 -3.731758
  C 4.444382 0.124386 -1.227014
  C 5.201869 0.133730 -2.330903
  O 6.551965 0.134317 -2.319594
  H 0.618380 0.025094 1.389414
  H 1.438993 -0.811424 -0.085483
  H 0.221908 0.679416 -0.268338
  H 3.734397 0.912177 1.461036
  H 3.905925 -0.835918 1.290131
  H 2.666265 -0.678621 -3.078211
  H 2.771593 1.074112 -3.046654
  H 0.446804 1.233421 -2.235906
  H 0.312187 -0.537476 -2.229504
  H 4.981685 0.118540 -0.285794
  H 4.840247 0.138999 -3.341488
  H 6.864141 0.134942 -1.399672
 23
 56.009426
  C 0.885345 0.120574 0.370491
  C 2.359437 0.060055 0.060063
  C 3.193689 -0.034230 1.323275
  H 2.563366 -0.184356 2.186220
  C 2.989912 0.147198 -1.156125
  C 2.348642 0.214590 -2.531875
  C 0.837455 0.313154 -2.693404
  H 0.607935 0.326771 -3.756295
  C 4.424009 0.128027 -1.220147
  C 5.176082 0.132933 -2.327317
  O 6.547565 0.138607 -2.324138
  H 0.627498 0.068502 1.413273
  H 1.485181 -0.800435 -0.031705
  H 0.208842 0.650808 -0.272370
  H 3.739512 0.889957 1.473688
  H 3.901308 -0.851203 1.287738
  H 2.681718 -0.677590 -3.078084
  H 2.786988 1.077791 -3.046053
  H 0.454735 1.230748 -2.269170
  H 0.324042 -0.531629 -2.259187
  H 4.963450 0.128960 -0.280198
  H 4.801244 0.130568 -3.348550
  H 6.863055 0.147041 -1.416141
 23
 58.805516
  C 0.882181 0.143408 0.363629
  C 2.361211 0.054994 0.052870
  C 3.192680 -0.048337 1.319564
  H 2.557447 -0.199931 2.181486
  C 2.990705 0.147546 -1.160228
  C 2.331501 0.216247 -2.542450
  C 0.810254 0.312347 -2.687313
  H 0.566843 0.324052 -3.750053
  C 4.457212 0.128584 -1.224181
  C 5.213446 0.129488 -2.323302
  O 6.582121 0.143036 -2.311530
  H 0.617728 0.117930 1.402724
  H 1.522606 -0.795750 -0.010605
  H 0.206628 0.625716 -0.300178
  H 3.743040 0.872573 1.476993
  H 3.897726 -0.870764 1.281029
  H 2.659376 -0.673638 -3.093584
  H 2.762953 1.079519 -3.060758
  H 0.427746 1.237389 -2.255905
  H 0.299609 -0.541639 -2.241755
  H 4.996766 0.136143 -0.283840
  H 4.851773 0.119885 -3.330051
  H 6.892737 0.160194 -1.396199
 23
 61.351328
  C 0.880206 0.164778 0.372213
  C 2.362265 0.048555 0.056378
  C 3.192287 -0.060373 1.322135
  H 2.551319 -0.212651 2.187030
  C 2.997174 0.147220 -1.164028
  C 2.345516 0.216845 -2.541651
  C 0.836010 0.308470 -2.688016
  H 0.596168 0.319210 -3.746768
  C 4.436421 0.130411 -1.225237
  C 5.195121 0.131138 -2.329984
  O 6.560276 0.148123 -2.318340
  H 0.613024 0.155280 1.410769
  H 1.553111 -0.792086 0.014904
  H 0.195176 0.612438 -0.313669
  H 3.746551 0.858440 1.482966
  H 3.898510 -0.891820 1.279712
  H 2.674628 -0.669097 -3.092453
  H 2.774774 1.079458 -3.055929
  H 0.451638 1.230759 -2.258379
  H 0.327758 -0.547791 -2.243225
  H 4.972686 0.143366 -0.287911
  H 4.830025 0.118476 -3.344950
  H 6.870213 0.168251 -1.403437
 23
 63.689656
  C 0.876877 0.188425 0.379151
  C 2.356957 0.042840 0.054084
  C 3.195160 -0.072319 1.319712
  H 2.557050 -0.226105 2.187688
  C 2.992448 0.148385 -1.168480
  C 2.346871 0.217096 -2.535860
  C 0.832178 0.302985 -2.686865
  H 0.590959 0.311020 -3.759482
  C 4.439739 0.130706 -1.228450
  C 5.201472 0.130210 -2.329421
  O 6.571323 0.151431 -2.313490
  H 0.609476 0.183397 1.419667
  H 1.572676 -0.786058 0.026575
  H 0.190096 0.602050 -0.311201
  H 3.754641 0.844088 1.482606
  H 3.893938 -0.901523 1.270124
  H 2.683681 -0.674768 -3.089913
  H 2.779059 1.089424 -3.051830
  H 0.444922 1.217768 -2.262200
  H 0.332324 -0.544782 -2.246932
  H 4.972186 0.145522 -0.295074
  H 4.841199 0.115435 -3.340206
  H 6.877767 0.174800 -1.398932
 23
 65.832293
  C 0.882225 0.212778 0.395948
  C 2.351231 0.037530 0.055707
  C 3.199804 -0.080565 1.310270
  H 2.567208 -0.234026 2.186212
  C 2.987540 0.151111 -1.171545
  C 2.345634 0.218949 -2.536549
  C 0.845329 0.293476 -2.696090
  H 0.615056 0.299973 -3.759435
  C 4.433394 0.139127 -1.228574
  C 5.201601 0.139226 -2.325958
  O 6.568727 0.144828 -2.301142
  H 0.619172 0.203282 1.434277
  H 1.590573 -0.779188 0.038374
  H 0.179311 0.604804 -0.303938
  H 3.759093 0.825606 1.468648
  H 3.899723 -0.917024 1.250408
  H 2.687482 -0.663655 -3.087711
  H 2.770221 1.088051 -3.044946
  H 0.447136 1.209459 -2.272384
  H 0.345121 -0.566589 -2.256195
  H 4.959369 0.155202 -0.300480
  H 4.845772 0.120888 -3.343451
  H 6.869164 0.162958 -1.383515
 23
 67.745935
  C 0.892896 0.238397 0.381055
  C 2.364395 0.027967 0.060789
  C 3.197237 -0.094885 1.330536
  H 2.553593 -0.245850 2.192715
  C 3.010243 0.144768 -1.167679
  C 2.359580 0.214546 -2.543958
  C 0.830288 0.291408 -2.688871
  H 0.583086 0.296536 -3.760881
  C 4.443227 0.124675 -1.223898
  C 5.203529 0.127299 -2.328339
  O 6.570385 0.164072 -2.313761
  H 0.608883 0.221458 1.405896
  H 1.621730 -0.781806 0.035121
  H 0.192027 0.604760 -0.340942
  H 3.765539 0.819818 1.500736
  H 3.891063 -0.933747 1.279648
  H 2.701299 -0.677369 -3.104130
  H 2.788935 1.095031 -3.063014
  H 0.434510 1.214344 -2.258953
  H 0.330888 -0.572357 -2.238916
  H 4.983266 0.141718 -0.279219
  H 4.837099 0.114077 -3.349180
  H 6.877544 0.191473 -1.399161
