 22
 0.000000
  C 0.982580 0.153290 0.433606
  C 2.455566 0.139199 0.397932
  C 3.242156 0.602341 1.549947
  H 2.644068 0.939053 2.388176
  C 3.049305 -0.330360 -0.770812
  C 4.430588 -0.417644 -0.988800
  C 5.093878 -0.865279 -2.105120
  C 4.625225 -1.383792 -3.398276
  C 3.142822 -1.509581 -3.712450
  H 3.015853 -1.910670 -4.712917
  H 6.175482 -0.849280 -2.065404
  H 0.566780 0.527380 1.364545
  H 0.599602 -0.854963 0.266789
  H 0.599218 0.765537 -0.384488
  H 3.897672 1.418531 1.239020
  H 3.898008 -0.201755 1.890226
  H 2.379812 -0.645088 -1.553935
  H 5.060474 -0.089552 -0.171549
  H 5.097538 -2.367811 -3.520897
  H 5.097828 -0.757304 -4.166788
  H 2.654897 -0.538260 -3.676477
  H 2.654719 -2.186960 -3.015500
 22
 0.285638
  C 0.973064 0.166577 0.455045
  C 2.440721 0.106037 0.391395
  C 3.226038 0.613148 1.526101
  H 2.598872 0.965427 2.335976
  C 3.041688 -0.386993 -0.765863
  C 4.425088 -0.437128 -0.984923
  C 5.088528 -0.868526 -2.110095
  C 4.631049 -1.376979 -3.406460
  C 3.155620 -1.523811 -3.724214
  H 3.046806 -1.910055 -4.733666
  H 6.170729 -0.827726 -2.048780
  H 0.675532 0.442454 1.462689
  H 0.531602 -0.790647 0.177004
  H 0.603216 0.926234 -0.236364
  H 3.874912 1.429002 1.205381
  H 3.890388 -0.163531 1.906345
  H 2.379145 -0.744013 -1.537511
  H 5.057023 -0.094927 -0.178118
  H 5.129552 -2.347997 -3.545511
  H 5.107769 -0.745572 -4.169470
  H 2.645170 -0.566625 -3.679411
  H 2.675466 -2.226271 -3.050106
 22
 4.126823
  C 0.952673 0.162646 0.433891
  C 2.423459 0.080495 0.384465
  C 3.210612 0.630503 1.500340
  H 2.591097 0.988992 2.316221
  C 3.042527 -0.425047 -0.760131
  C 4.427232 -0.449308 -0.978006
  C 5.094738 -0.861732 -2.107452
  C 4.641658 -1.365439 -3.412609
  C 3.159986 -1.526681 -3.718376
  H 3.048254 -1.913484 -4.729402
  H 6.176967 -0.813431 -2.042648
  H 0.782762 0.372171 1.488972
  H 0.502505 -0.765473 0.101444
  H 0.581554 1.030231 -0.110860
  H 3.863585 1.434420 1.160377
  H 3.869072 -0.145287 1.900359
  H 2.391714 -0.809163 -1.530270
  H 5.055775 -0.107200 -0.165016
  H 5.134795 -2.338788 -3.537331
  H 5.106839 -0.723189 -4.172551
  H 2.640307 -0.574648 -3.675025
  H 2.692385 -2.237348 -3.044182
 22
 10.911453
  C 0.937943 0.169400 0.419226
  C 2.415987 0.072005 0.390190
  C 3.201549 0.636981 1.507884
  H 2.588954 1.021819 2.315333
  C 3.032851 -0.439001 -0.754244
  C 4.423388 -0.470728 -0.972106
  C 5.086765 -0.865039 -2.105401
  C 4.646473 -1.357677 -3.419435
  C 3.175231 -1.550983 -3.739494
  H 3.076363 -1.912795 -4.757587
  H 6.176763 -0.805691 -2.040293
  H 0.896899 0.333793 1.497588
  H 0.471576 -0.738234 0.061327
  H 0.548182 1.087813 0.011243
  H 3.820854 1.451954 1.154516
  H 3.868966 -0.122095 1.904352
  H 2.389647 -0.823701 -1.523573
  H 5.048673 -0.128445 -0.160616
  H 5.151931 -2.328665 -3.555388
  H 5.113760 -0.699161 -4.164591
  H 2.637005 -0.607111 -3.679169
  H 2.717398 -2.276210 -3.075072
 22
 19.664909
  C 0.910999 0.148036 0.397238
  C 2.414952 0.105320 0.381604
  C 3.215033 0.668542 1.477460
  H 2.600570 0.989809 2.314703
  C 3.055966 -0.396990 -0.765117
  C 4.439949 -0.451678 -0.970930
  C 5.098365 -0.868851 -2.099162
  C 4.653024 -1.358667 -3.401326
  C 3.172184 -1.520053 -3.728000
  H 3.084915 -1.924631 -4.726101
  H 6.176890 -0.857399 -2.036530
  H 0.933477 0.341001 1.475706
  H 0.537936 -0.803891 0.067717
  H 0.380257 1.037714 0.096903
  H 3.860480 1.476047 1.146147
  H 3.836891 -0.141175 1.871782
  H 2.427710 -0.761005 -1.563254
  H 5.058599 -0.139680 -0.146082
  H 5.128873 -2.341691 -3.523792
  H 5.144424 -0.751432 -4.172658
  H 2.649178 -0.564180 -3.712396
  H 2.700704 -2.232917 -3.058867
 22
 24.747878
  C 0.933854 0.154626 0.401429
  C 2.413031 0.084920 0.366924
  C 3.196830 0.673080 1.469989
  H 2.568080 1.038858 2.269724
  C 3.027992 -0.424017 -0.788941
  C 4.410635 -0.470882 -0.974974
  C 5.091297 -0.895809 -2.091554
  C 4.669017 -1.393508 -3.404923
  C 3.192973 -1.512990 -3.743697
  H 3.110352 -1.885142 -4.765156
  H 6.176224 -0.862888 -1.971246
  H 1.063776 0.250462 1.482490
  H 0.572449 -0.781755 0.014716
  H 0.376252 1.076353 0.279892
  H 3.782011 1.527433 1.111850
  H 3.879359 -0.057942 1.902627
  H 2.387761 -0.805548 -1.570975
  H 5.031388 -0.157027 -0.143608
  H 5.138775 -2.377292 -3.532624
  H 5.142934 -0.735346 -4.145202
  H 2.691072 -0.552645 -3.720389
  H 2.685632 -2.236547 -3.111162
 22
 27.067464
  C 0.902685 0.088885 0.484092
  C 2.382155 0.059056 0.359944
  C 3.161321 0.768990 1.416024
  H 2.559412 1.130887 2.238559
  C 3.051034 -0.404322 -0.778130
  C 4.435697 -0.515817 -0.955907
  C 5.094879 -0.946554 -2.082359
  C 4.688040 -1.416156 -3.414718
  C 3.213963 -1.450280 -3.776837
  H 3.124587 -1.820647 -4.797975
  H 6.176143 -0.998952 -1.938375
  H 1.140856 0.140994 1.557831
  H 0.468722 -0.811411 0.080183
  H 0.301010 0.989659 0.446928
  H 3.696854 1.581978 0.932697
  H 3.928514 0.088774 1.760654
  H 2.429751 -0.775008 -1.585714
  H 5.064638 -0.280433 -0.104213
  H 5.125898 -2.411736 -3.527593
  H 5.226815 -0.764141 -4.110146
  H 2.772856 -0.463145 -3.736027
  H 2.668297 -2.131517 -3.131113
 22
 26.601915
  C 0.951859 0.110716 0.437124
  C 2.398114 0.102111 0.358969
  C 3.177554 0.782173 1.412455
  H 2.605207 1.133706 2.272262
  C 3.038492 -0.401784 -0.783289
  C 4.408120 -0.525307 -0.951975
  C 5.087607 -0.964968 -2.060433
  C 4.688931 -1.434194 -3.397841
  C 3.213811 -1.474967 -3.785111
  H 3.128103 -1.838722 -4.808150
  H 6.179478 -0.972086 -1.946887
  H 1.167133 -0.003385 1.532083
  H 0.520633 -0.728188 -0.065990
  H 0.272806 0.961903 0.535057
  H 3.704066 1.634440 0.957125
  H 3.943863 0.118181 1.812392
  H 2.366539 -0.744765 -1.557896
  H 5.041356 -0.229117 -0.112177
  H 5.138924 -2.419851 -3.536403
  H 5.217711 -0.761370 -4.095557
  H 2.770153 -0.492797 -3.718095
  H 2.668270 -2.172481 -3.158119
 22
 27.509186
  C 0.936125 0.075218 0.492569
  C 2.362833 0.121167 0.320361
  C 3.171629 0.811011 1.358979
  H 2.608812 1.187463 2.200709
  C 3.037110 -0.391126 -0.805990
  C 4.411087 -0.532235 -0.936371
  C 5.104773 -0.991360 -2.034120
  C 4.690055 -1.416311 -3.368988
  C 3.224026 -1.448100 -3.786185
  H 3.156737 -1.794301 -4.811237
  H 6.188973 -1.023134 -1.922957
  H 1.273206 -0.100918 1.524484
  H 0.453353 -0.705498 -0.071211
  H 0.285375 0.912268 0.754849
  H 3.674295 1.662619 0.895929
  H 3.919578 0.140057 1.745449
  H 2.394460 -0.747260 -1.596260
  H 5.023590 -0.201810 -0.107567
  H 5.126001 -2.417323 -3.505215
  H 5.277008 -0.841392 -4.098124
  H 2.796798 -0.456981 -3.746229
  H 2.652815 -2.128294 -3.164672
 22
 35.257750
  C 0.883962 0.166692 0.523026
  C 2.294445 0.076483 0.314471
  C 3.167175 0.748741 1.356108
  H 2.637530 1.097245 2.229462
  C 3.013222 -0.361571 -0.824451
  C 4.397169 -0.451153 -0.968457
  C 5.097951 -0.906773 -2.056507
  C 4.733524 -1.416566 -3.391447
  C 3.273043 -1.524790 -3.805653
  H 3.212022 -1.923386 -4.805238
  H 6.174994 -0.905464 -1.920707
  H 1.359496 -0.148362 1.497377
  H 0.276532 -0.533496 -0.036642
  H 0.361429 1.027747 0.913909
  H 3.675688 1.581019 0.889323
  H 3.920830 0.026836 1.666748
  H 2.402538 -0.696381 -1.645235
  H 5.006234 -0.147000 -0.127780
  H 5.177525 -2.412172 -3.445594
  H 5.271105 -0.791096 -4.109916
  H 2.790909 -0.549576 -3.787384
  H 2.726528 -2.189758 -3.130393
 22
 40.694360
  C 0.892227 0.131778 0.541226
  C 2.275385 0.089252 0.281026
  C 3.167969 0.755406 1.322238
  H 2.630478 1.072604 2.201333
  C 2.984198 -0.384010 -0.838969
  C 4.376077 -0.433324 -0.971369
  C 5.093451 -0.912972 -2.034861
  C 4.742373 -1.435454 -3.364297
  C 3.278160 -1.494584 -3.799080
  H 3.226963 -1.902593 -4.807377
  H 6.174042 -0.913527 -1.882643
  H 1.502830 -0.208412 1.475927
  H 0.268199 -0.503251 -0.063745
  H 0.385246 0.989998 0.990365
  H 3.663287 1.637735 0.915338
  H 3.927481 0.061631 1.657672
  H 2.381066 -0.712230 -1.661306
  H 4.970095 -0.094152 -0.141920
  H 5.174155 -2.442956 -3.432011
  H 5.296456 -0.820790 -4.081430
  H 2.835870 -0.496362 -3.820085
  H 2.698285 -2.151804 -3.148581
 22
 44.787888
  C 0.896571 0.140576 0.505680
  C 2.309950 0.079852 0.334197
  C 3.127833 0.841993 1.358906
  H 2.560835 1.147919 2.214209
  C 3.016566 -0.414446 -0.827665
  C 4.405519 -0.547036 -0.945115
  C 5.121495 -0.962363 -2.031508
  C 4.734249 -1.431503 -3.381280
  C 3.267941 -1.490935 -3.788999
  H 3.204041 -1.856980 -4.804241
  H 6.198999 -0.947287 -1.905875
  H 1.615739 -0.328919 1.436224
  H 0.316885 -0.384759 -0.223490
  H 0.383836 0.891352 1.106769
  H 3.507981 1.758277 0.914797
  H 4.001372 0.271846 1.682139
  H 2.396332 -0.697560 -1.664809
  H 5.005217 -0.290197 -0.077892
  H 5.190346 -2.424251 -3.519281
  H 5.268221 -0.786872 -4.091832
  H 2.810165 -0.495885 -3.769078
  H 2.712195 -2.174216 -3.160701
 22
 51.864996
  C 0.890112 0.207931 0.434080
  C 2.302094 0.105767 0.317604
  C 3.149443 0.798526 1.403476
  H 2.593892 1.066735 2.293926
  C 2.987206 -0.400824 -0.825280
  C 4.379135 -0.472867 -0.958408
  C 5.106622 -0.904203 -2.034546
  C 4.739324 -1.417765 -3.371242
  C 3.275173 -1.529122 -3.781587
  H 3.222159 -1.940147 -4.785299
  H 6.182738 -0.888240 -1.896490
  H 1.808730 -0.355838 1.378095
  H 0.293031 -0.249482 -0.338337
  H 0.383789 0.865509 1.123833
  H 3.548268 1.752269 1.010661
  H 3.999987 0.199250 1.675340
  H 2.363995 -0.717094 -1.650527
  H 4.974138 -0.169867 -0.108663
  H 5.194625 -2.406389 -3.450738
  H 5.276064 -0.805704 -4.104469
  H 2.802886 -0.566506 -3.799701
  H 2.728510 -2.202556 -3.124216
 22
 58.217561
  C 0.913150 0.247565 0.316997
  C 2.308906 0.138932 0.303781
  C 3.139453 0.750098 1.499513
  H 2.587589 0.992739 2.408925
  C 2.997098 -0.379163 -0.828557
  C 4.381555 -0.426547 -0.977337
  C 5.109171 -0.867383 -2.050547
  C 4.734186 -1.427133 -3.369755
  C 3.268241 -1.577647 -3.751522
  H 3.206421 -2.000432 -4.751725
  H 6.184999 -0.847093 -1.922104
  H 2.020180 -0.291948 1.377756
  H 0.320384 -0.158827 -0.482293
  H 0.390828 0.854592 1.035025
  H 3.524387 1.707162 1.141676
  H 3.989918 0.120127 1.740200
  H 2.368761 -0.699970 -1.642332
  H 4.981517 -0.110632 -0.133733
  H 5.221979 -2.407197 -3.442974
  H 5.234353 -0.808035 -4.125453
  H 2.765484 -0.614342 -3.770272
  H 2.753362 -2.255831 -3.076137
