 28
 0.000000
  C 0.965345 0.145882 0.415345
  C 2.438364 0.141300 0.403011
  C 3.234088 0.606665 1.560310
  C 2.469117 1.098011 2.783454
  H 3.158932 1.409039 3.556989
  C 3.050464 -0.324608 -0.756718
  C 4.430477 -0.413859 -0.979662
  C 5.089702 -0.862660 -2.098476
  C 4.611340 -1.381731 -3.392781
  C 3.126636 -1.507861 -3.708534
  C 2.927069 -2.071441 -5.113844
  H 6.169886 -0.852244 -2.072493
  H 0.539983 0.517522 1.340116
  H 0.590921 -0.864851 0.246235
  H 0.590387 0.758172 -0.406177
  H 3.892760 1.413182 1.218549
  H 3.893245 -0.211672 1.871609
  H 1.836330 0.308598 3.185067
  H 1.835917 1.945537 2.527273
  H 2.390600 -0.642366 -1.547374
  H 5.063160 -0.086987 -0.165762
  H 5.077995 -2.367984 -3.516240
  H 5.078630 -0.754570 -4.163511
  H 2.645694 -0.529692 -3.661777
  H 2.645103 -2.182320 -2.998937
  H 3.373737 -1.421712 -5.863031
  H 1.866301 -2.159844 -5.335222
  H 3.373201 -3.059051 -5.206328
 28
 5.605859
  C 0.965181 0.161580 0.455067
  C 2.431689 0.144876 0.411996
  C 3.247610 0.603755 1.552448
  C 2.502080 1.098270 2.783628
  H 3.216416 1.403856 3.543289
  C 3.013188 -0.325926 -0.759671
  C 4.352279 -0.434516 -1.030680
  C 5.063947 -0.866917 -2.108530
  C 4.631944 -1.386543 -3.404354
  C 3.151411 -1.516847 -3.730981
  C 2.961317 -2.080449 -5.136937
  H 6.140502 -0.829571 -2.015313
  H 0.566474 0.537073 1.389125
  H 0.579104 -0.844646 0.285191
  H 0.578229 0.769630 -0.364039
  H 3.908248 1.405015 1.201388
  H 3.909081 -0.216933 1.853488
  H 1.875396 0.316327 3.205698
  H 1.874717 1.954333 2.547430
  H 2.317153 -0.636500 -1.532174
  H 4.799685 -0.081006 -0.150438
  H 5.113317 -2.366438 -3.524443
  H 5.114084 -0.761656 -4.168160
  H 2.669647 -0.539169 -3.682872
  H 2.668874 -2.190039 -3.020964
  H 3.411935 -1.429607 -5.882917
  H 1.903034 -2.172383 -5.367591
  H 3.411148 -3.066689 -5.226571
 28
 15.605423
  C 0.951003 0.181855 0.505644
  C 2.420160 0.148742 0.421029
  C 3.257106 0.603959 1.552364
  C 2.527574 1.102954 2.796123
  H 3.261952 1.403673 3.544184
  C 2.961967 -0.335775 -0.785405
  C 4.307763 -0.458544 -1.090987
  C 5.069646 -0.874495 -2.127717
  C 4.670528 -1.396122 -3.428188
  C 3.187368 -1.527246 -3.757165
  C 2.989553 -2.090887 -5.162516
  H 6.139329 -0.816030 -1.981434
  H 0.581563 0.560801 1.448239
  H 0.549050 -0.819981 0.339772
  H 0.547946 0.789233 -0.307566
  H 3.918462 1.407150 1.200029
  H 3.919964 -0.218642 1.853417
  H 1.908636 0.325418 3.235112
  H 1.907693 1.967544 2.575899
  H 2.202954 -0.628830 -1.515232
  H 4.562611 -0.079667 -0.146808
  H 5.162583 -2.373560 -3.547848
  H 5.163735 -0.773373 -4.190334
  H 2.708799 -0.548402 -3.700381
  H 2.707872 -2.194895 -3.039911
  H 3.439029 -1.441116 -5.910402
  H 1.930470 -2.181525 -5.390211
  H 3.437995 -3.077780 -5.253832
 28
 29.249658
  C 0.934148 0.187811 0.519751
  C 2.407845 0.150507 0.425050
  C 3.268847 0.606822 1.559748
  C 2.564327 1.108374 2.810633
  H 3.308316 1.401895 3.541594
  C 2.926058 -0.330442 -0.772892
  C 4.266736 -0.466376 -1.111123
  C 5.064457 -0.878877 -2.139467
  C 4.682685 -1.402958 -3.445726
  C 3.213125 -1.534891 -3.776192
  C 3.019062 -2.096126 -5.174908
  H 6.142006 -0.812394 -1.973543
  H 0.569619 0.568852 1.467561
  H 0.528296 -0.811630 0.356485
  H 0.527387 0.795444 -0.289916
  H 3.928712 1.407448 1.204000
  H 3.930067 -0.216381 1.856118
  H 1.948356 0.334327 3.259921
  H 1.947600 1.977912 2.600646
  H 2.136689 -0.613976 -1.479440
  H 4.374015 -0.077188 -0.140907
  H 5.174769 -2.374735 -3.561424
  H 5.175753 -0.781733 -4.201003
  H 2.734718 -0.557488 -3.717853
  H 2.733803 -2.200657 -3.058305
  H 3.469018 -1.446348 -5.921174
  H 1.961262 -2.187433 -5.403678
  H 3.468438 -3.082037 -5.264829
 28
 44.763409
  C 0.944057 0.187329 0.516968
  C 2.416765 0.148811 0.419797
  C 3.267421 0.602287 1.548980
  C 2.547268 1.103660 2.800654
  H 3.287615 1.400138 3.540288
  C 2.939716 -0.332513 -0.779881
  C 4.296431 -0.476646 -1.138074
  C 5.107523 -0.880677 -2.145233
  C 4.715190 -1.405736 -3.453000
  C 3.228535 -1.524970 -3.750770
  C 2.992913 -2.085462 -5.146427
  H 6.173886 -0.812816 -1.976270
  H 0.585100 0.567146 1.462268
  H 0.535547 -0.814150 0.354427
  H 0.534938 0.797472 -0.293301
  H 3.930385 1.407196 1.196783
  H 3.931615 -0.222149 1.850122
  H 1.930620 0.329305 3.244863
  H 1.930319 1.970209 2.587450
  H 2.137449 -0.608431 -1.468179
  H 4.267540 -0.085648 -0.163106
  H 5.202098 -2.383265 -3.577665
  H 5.202931 -0.786457 -4.219348
  H 2.762102 -0.545099 -3.679828
  H 2.761688 -2.183411 -3.021936
  H 3.429996 -1.440750 -5.903559
  H 1.929461 -2.166573 -5.348939
  H 3.429797 -3.074967 -5.247243
 28
 58.493881
  C 0.942535 0.193753 0.518686
  C 2.413411 0.153332 0.420323
  C 3.268630 0.603630 1.556313
  C 2.546131 1.101502 2.813049
  H 3.279788 1.392344 3.549559
  C 2.947453 -0.317493 -0.763668
  C 4.310628 -0.479619 -1.158273
  C 5.111574 -0.875582 -2.145574
  C 4.723080 -1.410041 -3.466313
  C 3.235391 -1.528887 -3.753084
  C 2.993550 -2.091113 -5.144517
  H 6.174105 -0.808081 -1.984441
  H 0.591137 0.571312 1.467626
  H 0.529889 -0.807418 0.359414
  H 0.531483 0.812972 -0.284580
  H 3.930244 1.411701 1.208740
  H 3.929708 -0.224121 1.855818
  H 1.928565 0.325068 3.254215
  H 1.930091 1.970469 2.603089
  H 2.157691 -0.589707 -1.455457
  H 4.192723 -0.089025 -0.180179
  H 5.207132 -2.388051 -3.586520
  H 5.204364 -0.787570 -4.231933
  H 2.770868 -0.552232 -3.682704
  H 2.773873 -2.184746 -3.023684
  H 3.426117 -1.449140 -5.902390
  H 1.930797 -2.172395 -5.340606
  H 3.429680 -3.078182 -5.244977
 28
 64.469344
  C 0.901507 0.249478 0.530013
  C 2.401033 0.194800 0.434000
  C 3.269698 0.604953 1.599495
  C 2.555703 1.060050 2.863811
  H 3.301000 1.320399 3.621411
  C 2.949602 -0.230485 -0.723634
  C 4.315821 -0.453924 -1.205322
  C 5.094467 -0.839037 -2.168622
  C 4.734647 -1.421065 -3.513956
  C 3.246616 -1.569040 -3.781890
  C 3.017852 -2.159915 -5.174449
  H 6.169538 -0.752749 -2.031420
  H 0.562322 0.602063 1.497918
  H 0.472593 -0.738118 0.357877
  H 0.497343 0.913105 -0.234312
  H 3.927472 1.422068 1.284487
  H 3.907600 -0.244757 1.870057
  H 1.929221 0.271415 3.275140
  H 1.949207 1.945044 2.682520
  H 2.183961 -0.477013 -1.478973
  H 4.162492 -0.054646 -0.176696
  H 5.229229 -2.392581 -3.603924
  H 5.191754 -0.780263 -4.273171
  H 2.758157 -0.593188 -3.729069
  H 2.794812 -2.231796 -3.039863
  H 3.440405 -1.516070 -5.944897
  H 1.952045 -2.265205 -5.367220
  H 3.477474 -3.143476 -5.260338
 28
 69.131744
  C 0.919748 0.294112 0.515121
  C 2.409004 0.230559 0.446389
  C 3.262399 0.595572 1.636824
  C 2.521090 1.011923 2.905911
  H 3.254290 1.243747 3.688895
  C 2.972559 -0.162231 -0.719160
  C 4.337238 -0.420301 -1.244279
  C 5.107697 -0.807230 -2.211537
  C 4.738063 -1.420705 -3.540552
  C 3.250351 -1.591768 -3.781883
  C 3.004542 -2.210785 -5.148557
  H 6.184492 -0.705431 -2.096945
  H 0.573774 0.614026 1.482050
  H 0.490624 -0.676670 0.306985
  H 0.538429 0.986261 -0.225246
  H 3.931429 1.424439 1.357084
  H 3.892782 -0.271521 1.889252
  H 1.885137 0.216305 3.276574
  H 1.923064 1.901719 2.744639
  H 2.229719 -0.374666 -1.516467
  H 4.139802 -0.024976 -0.223471
  H 5.241465 -2.388483 -3.611561
  H 5.171226 -0.782384 -4.317136
  H 2.755295 -0.624440 -3.745742
  H 2.822802 -2.240611 -3.022974
  H 3.404627 -1.583204 -5.934333
  H 1.943817 -2.331257 -5.320720
  H 3.470868 -3.184432 -5.220304
 28
 73.576402
  C 0.928675 0.347165 0.489876
  C 2.418292 0.265921 0.443571
  C 3.257430 0.570160 1.658648
  C 2.501774 0.941847 2.932580
  H 3.217115 1.129668 3.726208
  C 2.993157 -0.087100 -0.729443
  C 4.365243 -0.369805 -1.280296
  C 5.131411 -0.760483 -2.248497
  C 4.748212 -1.411045 -3.551942
  C 3.252335 -1.607009 -3.756737
  C 2.983049 -2.272058 -5.108673
  H 6.208030 -0.638580 -2.151721
  H 0.562446 0.635392 1.480558
  H 0.485797 -0.621659 0.226378
  H 0.565479 1.082763 -0.238469
  H 3.937942 1.397256 1.423346
  H 3.874061 -0.309985 1.880476
  H 1.849871 0.136718 3.260748
  H 1.914796 1.846925 2.800102
  H 2.279966 -0.254504 -1.548163
  H 4.120566 0.032110 -0.265278
  H 5.262449 -2.374247 -3.606660
  H 5.157739 -0.787170 -4.351472
  H 2.746044 -0.642040 -3.737500
  H 2.849195 -2.239297 -2.965626
  H 3.361532 -1.658749 -5.926600
  H 1.911641 -2.411103 -5.256460
  H 3.463177 -3.249459 -5.163922
 28
 76.969100
  C 0.936917 0.407575 0.458134
  C 2.422279 0.302586 0.435196
  C 3.250599 0.534961 1.678354
  C 2.483113 0.859297 2.962044
  H 3.203036 0.998742 3.786815
  C 3.008438 -0.005660 -0.747227
  C 4.383712 -0.307331 -1.311263
  C 5.138854 -0.707763 -2.283984
  C 4.743527 -1.402973 -3.561690
  C 3.251876 -1.628925 -3.737499
  C 2.973714 -2.339978 -5.056195
  H 6.213506 -0.564633 -2.210793
  H 0.559258 0.652685 1.446902
  H 0.484709 -0.534128 0.140512
  H 0.600932 1.179778 -0.238445
  H 3.951305 1.362062 1.490549
  H 3.852892 -0.366947 1.863905
  H 1.812301 0.049962 3.243194
  H 1.912412 1.781189 2.865553
  H 2.306464 -0.122548 -1.592420
  H 4.097102 0.108877 -0.307544
  H 5.272765 -2.360895 -3.594656
  H 5.128818 -0.795599 -4.388483
  H 2.732925 -0.675486 -3.743253
  H 2.872293 -2.236526 -2.922645
  H 3.328683 -1.752192 -5.895075
  H 1.909386 -2.499316 -5.182561
  H 3.465300 -3.305404 -5.085780
 28
 79.496413
  C 0.944993 0.468932 0.448022
  C 2.429228 0.336293 0.434528
  C 3.239294 0.496307 1.683551
  C 2.462437 0.771419 2.959652
  H 3.154546 0.859923 3.781012
  C 3.027633 0.072597 -0.761632
  C 4.411419 -0.248778 -1.335274
  C 5.152743 -0.661891 -2.309257
  C 4.743259 -1.398812 -3.564809
  C 3.249903 -1.651996 -3.710624
  C 2.961000 -2.404639 -5.004001
  H 6.229015 -0.495370 -2.262598
  H 0.561254 0.675583 1.444127
  H 0.481171 -0.442264 0.083805
  H 0.632236 1.272842 -0.211908
  H 3.954898 1.318938 1.543086
  H 3.825243 -0.421243 1.833940
  H 1.783608 -0.030008 3.190371
  H 1.913212 1.694000 2.897674
  H 2.342440 0.010323 -1.616850
  H 4.084640 0.192403 -0.331336
  H 5.284673 -2.346811 -3.581457
  H 5.104299 -0.809778 -4.411264
  H 2.714657 -0.702619 -3.735456
  H 2.890626 -2.242439 -2.868770
  H 3.295583 -1.834014 -5.867993
  H 1.892793 -2.583332 -5.109246
  H 3.468341 -3.367353 -5.013954
 28
 81.400724
  C 0.957070 0.534738 0.403945
  C 2.438911 0.371801 0.412969
  C 3.233323 0.440525 1.685783
  C 2.436412 0.664201 2.972751
  H 3.118812 0.687469 3.811698
  C 3.054525 0.160199 -0.786258
  C 4.447895 -0.173664 -1.370141
  C 5.170798 -0.599611 -2.352973
  C 4.740943 -1.387930 -3.568836
  C 3.245285 -1.670122 -3.666527
  C 2.937682 -2.478165 -4.918802
  H 6.240571 -0.417715 -2.338757
  H 0.556241 0.692802 1.400863
  H 0.481614 -0.348353 -0.023649
  H 0.673174 1.382825 -0.218166
  H 3.968886 1.246557 1.605118
  H 3.793026 -0.495049 1.790889
  H 1.725146 -0.140870 3.148395
  H 1.905673 1.614472 2.955329
  H 2.391335 0.164411 -1.656797
  H 4.082802 0.293327 -0.358159
  H 5.298141 -2.328325 -3.565098
  H 5.070692 -0.825281 -4.443609
  H 2.693119 -0.730641 -3.716959
  H 2.914960 -2.231328 -2.789956
  H 3.242015 -1.938508 -5.812854
  H 1.871299 -2.677262 -4.990314
  H 3.460088 -3.432059 -4.902174
 28
 82.829554
  C 0.978133 0.605093 0.357822
  C 2.446946 0.406797 0.387745
  C 3.218541 0.372243 1.679082
  C 2.403981 0.539948 2.959792
  H 3.075218 0.487475 3.820404
  C 3.083055 0.253273 -0.815587
  C 4.470345 -0.094774 -1.406655
  C 5.177584 -0.533548 -2.394258
  C 4.730375 -1.376100 -3.562205
  C 3.240379 -1.687083 -3.604504
  C 2.913494 -2.556915 -4.815919
  H 6.246259 -0.336796 -2.410861
  H 0.554495 0.710026 1.360578
  H 0.496767 -0.230746 -0.134853
  H 0.730254 1.491774 -0.213041
  H 3.983889 1.160620 1.664415
  H 3.751086 -0.587625 1.735364
  H 1.665315 -0.249630 3.069086
  H 1.904110 1.505200 2.991529
  H 2.450934 0.325736 -1.692507
  H 4.078841 0.397798 -0.386153
  H 5.303792 -2.303024 -3.535861
  H 5.025762 -0.843460 -4.466728
  H 2.666331 -0.756048 -3.680021
  H 2.944055 -2.215988 -2.692269
  H 3.184348 -2.049528 -5.743453
  H 1.845778 -2.778381 -4.849256
  H 3.456004 -3.503448 -4.773100
 28
 83.141761
  C 0.985306 0.685621 0.342000
  C 2.447385 0.442530 0.375582
  C 3.204801 0.297503 1.664738
  C 2.383383 0.416823 2.947974
  H 3.040748 0.282055 3.807341
  C 3.093391 0.344159 -0.835643
  C 4.466236 -0.030455 -1.448737
  C 5.176308 -0.482168 -2.427121
  C 4.724431 -1.378966 -3.553723
  C 3.238818 -1.712848 -3.557279
  C 2.903560 -2.638287 -4.724585
  H 6.242541 -0.272873 -2.459128
  H 0.553111 0.737918 1.340677
  H 0.485850 -0.103155 -0.212243
  H 0.769148 1.616143 -0.174666
  H 4.000349 1.052346 1.706810
  H 3.699671 -0.683061 1.663239
  H 1.608891 -0.349174 3.000591
  H 1.921425 1.400971 3.036916
  H 2.478767 0.481653 -1.718613
  H 4.066057 0.504869 -0.407289
  H 5.312364 -2.295600 -3.499124
  H 4.996503 -0.879329 -4.483241
  H 2.652275 -0.796337 -3.660098
  H 2.967217 -2.204242 -2.618558
  H 3.150700 -2.167921 -5.677426
  H 1.839436 -2.875898 -4.729891
  H 3.460048 -3.574515 -4.651908
