 17
 0.000000
  C 1.008787 -0.070879 0.048463
  C 2.504555 -0.083705 0.025511
  C 3.220051 -0.595086 -0.980582
  C 4.656658 -0.606882 -1.003436
  C 5.376863 -1.122678 -2.015237
  C 6.814375 -1.131689 -2.034921
  C 7.530882 -1.642192 -3.034451
  H 8.603802 -1.653501 -3.058159
  H 0.647852 0.393598 0.964347
  H 0.611467 -1.084348 0.006388
  H 0.613001 0.496222 -0.793407
  H 3.006063 0.349550 0.880175
  H 2.709244 -1.027603 -1.831553
  H 5.161770 -0.172064 -0.150442
  H 4.872629 -1.558476 -2.867948
  H 7.319562 -0.695415 -1.182363
  H 7.036112 -2.079860 -3.889736
 17
 -0.130871
  C 1.010082 -0.008533 -0.009875
  C 2.502161 -0.053640 0.022276
  C 3.239831 -0.745571 -0.850624
  C 4.675073 -0.714142 -0.901681
  C 5.385046 -1.221269 -1.924503
  C 6.815107 -1.132103 -2.047248
  C 7.495993 -1.563001 -3.107409
  H 8.566541 -1.475453 -3.173831
  H 0.603032 0.296318 0.949959
  H 0.596383 -0.977862 -0.281323
  H 0.683727 0.712002 -0.763886
  H 2.990214 0.554818 0.771514
  H 2.745899 -1.343791 -1.606561
  H 5.183101 -0.204358 -0.092700
  H 4.863007 -1.712499 -2.737139
  H 7.340124 -0.677432 -1.215786
  H 6.998694 -2.018346 -3.948233
 17
 2.743995
  C 1.069955 0.053348 -0.184028
  C 2.535348 -0.089546 0.061361
  C 3.294503 -0.964211 -0.599349
  C 4.730980 -0.895066 -0.677009
  C 5.374772 -1.277600 -1.789572
  C 6.772510 -1.077796 -2.062326
  C 7.357992 -1.418771 -3.208307
  H 8.404658 -1.245616 -3.388775
  H 0.570463 0.573129 0.628887
  H 0.595476 -0.912345 -0.343747
  H 0.955241 0.641956 -1.097308
  H 2.996359 0.646419 0.706749
  H 2.817226 -1.686900 -1.250944
  H 5.252811 -0.361123 0.106673
  H 4.812340 -1.783927 -2.565581
  H 7.352603 -0.607937 -1.277329
  H 6.803674 -1.884444 -4.006727
 17
 8.812240
  C 1.224771 0.224936 -0.378401
  C 2.537869 -0.265287 0.136490
  C 3.241730 -1.188734 -0.521862
  C 4.683343 -1.218488 -0.551323
  C 5.291039 -1.310750 -1.743095
  C 6.692908 -1.094007 -1.986775
  C 7.264378 -1.224303 -3.181623
  H 8.316726 -1.052755 -3.333860
  H 0.680270 0.816267 0.350418
  H 0.597059 -0.585312 -0.742751
  H 1.501172 0.860266 -1.223528
  H 3.008568 0.318969 0.916387
  H 2.742180 -1.762316 -1.296128
  H 5.221689 -0.885250 0.326584
  H 4.711105 -1.642673 -2.596045
  H 7.286645 -0.788283 -1.133561
  H 6.694360 -1.512919 -4.049652
 17
 17.819870
  C 1.383548 0.216682 -0.557927
  C 2.571349 -0.286530 0.193012
  C 3.280723 -1.312726 -0.291213
  C 4.718901 -1.257761 -0.398748
  C 5.218707 -1.334389 -1.642011
  C 6.568166 -0.988957 -2.007451
  C 7.075743 -1.167787 -3.224389
  H 8.080551 -0.876212 -3.472828
  H 0.825031 0.981393 -0.029451
  H 0.722383 -0.581202 -0.882662
  H 1.870620 0.655993 -1.435664
  H 3.027019 0.394605 0.901971
  H 2.785595 -1.977117 -0.993899
  H 5.278552 -0.792215 0.400784
  H 4.631696 -1.820672 -2.412071
  H 7.171460 -0.534238 -1.232095
  H 6.496950 -1.618453 -4.014885
 17
 29.000603
  C 1.570894 0.199739 -0.721560
  C 2.597113 -0.299750 0.237307
  C 3.307208 -1.395511 -0.103139
  C 4.733444 -1.277812 -0.279502
  C 5.133148 -1.340668 -1.560812
  C 6.429690 -0.914639 -2.023795
  C 6.886375 -1.113695 -3.257167
  H 7.845131 -0.750953 -3.578696
  H 1.018085 1.078265 -0.377842
  H 0.893049 -0.579571 -1.076954
  H 2.244660 0.481620 -1.544805
  H 3.037254 0.430711 0.903532
  H 2.817630 -2.101469 -0.768838
  H 5.298827 -0.722148 0.450312
  H 4.557556 -1.932052 -2.264729
  H 7.041707 -0.382812 -1.298172
  H 6.309686 -1.660042 -3.987324
 17
 39.665881
  C 1.710869 0.197532 -0.807532
  C 2.610585 -0.326606 0.267283
  C 3.311765 -1.445442 -0.029651
  C 4.733455 -1.286976 -0.235660
  C 5.062212 -1.301195 -1.544550
  C 6.321886 -0.830527 -2.053415
  C 6.797791 -1.136959 -3.260790
  H 7.723075 -0.735121 -3.623365
  H 1.222709 1.133804 -0.568476
  H 1.002515 -0.533246 -1.192616
  H 2.483228 0.362029 -1.585007
  H 3.049403 0.406164 0.936054
  H 2.818634 -2.181196 -0.665670
  H 5.229320 -0.586955 0.424602
  H 4.499837 -1.942624 -2.214917
  H 6.938789 -0.276306 -1.357783
  H 6.237667 -1.742051 -3.951072
 17
 52.608577
  C 1.975045 0.182186 -0.980789
  C 2.647052 -0.278730 0.261021
  C 3.280124 -1.478656 0.119432
  C 4.684628 -1.328795 -0.153557
  C 4.944756 -1.345277 -1.486304
  C 6.185220 -0.834733 -2.023498
  C 6.564668 -0.992203 -3.286199
  H 7.482923 -0.574730 -3.656678
  H 1.552201 1.181647 -0.934131
  H 1.298439 -0.537831 -1.432792
  H 2.899318 0.187674 -1.622686
  H 3.068606 0.481952 0.912461
  H 2.773603 -2.203714 -0.507677
  H 5.291634 -0.732577 0.517694
  H 4.427578 -2.060939 -2.108015
  H 6.774718 -0.219768 -1.358844
  H 5.976523 -1.559172 -3.991482
 17
 72.833730
  C 2.230830 0.154415 -1.052405
  C 2.673623 -0.255464 0.259967
  C 3.242450 -1.537805 0.189446
  C 4.613212 -1.358874 -0.095979
  C 4.784159 -1.285654 -1.485307
  C 6.008592 -0.734781 -2.045453
  C 6.408810 -0.924639 -3.298664
  H 7.307862 -0.462074 -3.670611
  H 1.976403 1.204480 -1.163750
  H 1.585091 -0.519890 -1.612014
  H 3.333840 -0.072480 -1.629618
  H 3.111639 0.491392 0.925903
  H 2.706120 -2.260914 -0.441868
  H 5.181859 -0.723393 0.516838
  H 4.311956 -2.038277 -2.091566
  H 6.603637 -0.095270 -1.376421
  H 5.871682 -1.534820 -3.989322
 17
 81.545752
  C 2.250875 0.177666 -1.012758
  C 2.654531 -0.235740 0.258257
  C 3.218270 -1.524623 0.162351
  C 4.572377 -1.337045 -0.127307
  C 4.738836 -1.240786 -1.538067
  C 5.990370 -0.709368 -2.078650
  C 6.410162 -0.910484 -3.319927
  H 7.325386 -0.480249 -3.687847
  H 2.026091 1.222652 -1.161429
  H 1.666171 -0.489932 -1.629641
  H 3.653624 -0.213443 -1.694638
  H 3.082266 0.486602 0.940002
  H 2.685416 -2.228046 -0.472921
  H 5.162943 -0.680384 0.499252
  H 4.285375 -2.016040 -2.149092
  H 6.572312 -0.095595 -1.402778
  H 5.849926 -1.512078 -4.016589
 17
 72.581030
  C 2.145130 0.227517 -0.918682
  C 2.612746 -0.198625 0.270685
  C 3.214645 -1.505423 0.118894
  C 4.539249 -1.308045 -0.169817
  C 4.740982 -1.208297 -1.639902
  C 6.054729 -0.721865 -2.137632
  C 6.514684 -0.940394 -3.351504
  H 7.443538 -0.522588 -3.692663
  H 1.897547 1.283693 -1.036057
  H 1.595372 -0.439727 -1.572123
  H 3.917353 -0.343210 -1.806613
  H 3.059135 0.505929 0.942738
  H 2.673455 -2.188055 -0.538092
  H 5.106241 -0.613687 0.434357
  H 4.318528 -2.005329 -2.232250
  H 6.623932 -0.110344 -1.436492
  H 5.959825 -1.528463 -4.069329
 17
 55.853756
  C 1.826192 0.299053 -0.711989
  C 2.528752 -0.167994 0.325683
  C 3.225830 -1.394030 -0.008038
  C 4.526468 -1.193442 -0.325674
  C 4.835590 -1.169134 -1.792454
  C 6.221510 -0.802293 -2.194238
  C 6.738003 -1.049500 -3.384151
  H 7.715676 -0.703617 -3.663425
  H 1.433753 1.306473 -0.708630
  H 1.368923 -0.369574 -1.427646
  H 4.132481 -0.302749 -2.034131
  H 2.986875 0.509026 1.027851
  H 2.678792 -2.044346 -0.689769
  H 5.124891 -0.535514 0.290859
  H 4.445260 -2.017213 -2.350699
  H 6.775677 -0.213530 -1.472662
  H 6.197124 -1.608462 -4.132439
 17
 45.073595
  C 1.698545 0.346112 -0.588956
  C 2.483331 -0.194064 0.342099
  C 3.244480 -1.331749 -0.143746
  C 4.533022 -1.097238 -0.462512
  C 4.894232 -1.108491 -1.918330
  C 6.301054 -0.774532 -2.264428
  C 6.903198 -1.149852 -3.376671
  H 7.917414 -0.867994 -3.598891
  H 1.268339 1.328089 -0.461045
  H 1.254571 -0.250121 -1.367706
  H 4.222884 -0.266708 -2.211318
  H 2.904275 0.409013 1.136062
  H 2.696140 -1.998982 -0.803573
  H 5.109940 -0.416799 0.157013
  H 4.533161 -1.986446 -2.454117
  H 6.828478 -0.171784 -1.534148
  H 6.403699 -1.758596 -4.114795
 17
 32.548707
  C 1.488080 0.342686 -0.376362
  C 2.458014 -0.199503 0.353118
  C 3.254972 -1.197035 -0.335148
  C 4.530432 -0.941150 -0.646564
  C 4.977427 -1.026291 -2.076875
  C 6.429461 -0.790525 -2.322028
  C 7.102565 -1.288284 -3.342177
  H 8.153607 -1.097867 -3.480421
  H 0.965810 1.238163 -0.080612
  H 1.065994 -0.184553 -1.214777
  H 4.383534 -0.173476 -2.462727
  H 2.902582 0.326466 1.184632
  H 2.701283 -1.849866 -1.004655
  H 5.116155 -0.296606 -0.003484
  H 4.624556 -1.927930 -2.578281
  H 6.926449 -0.156211 -1.598026
  H 6.630342 -1.911844 -4.083433
 17
 9.434180
  C 1.177421 -0.068211 0.334570
  C 2.499549 -0.172361 0.247692
  C 3.168889 -0.625276 -0.955090
  C 4.427768 -0.315418 -1.255200
  C 5.069665 -0.649261 -2.567689
  C 6.555510 -0.765736 -2.456735
  C 7.249861 -1.829581 -2.811858
  H 8.319673 -1.881696 -2.693455
  H 0.688307 0.316321 1.212419
  H 0.545571 -0.360449 -0.486440
  H 4.830397 0.157668 -3.279720
  H 3.132611 0.156660 1.063653
  H 2.556043 -1.160779 -1.668181
  H 5.023439 0.258468 -0.561452
  H 4.643236 -1.571326 -2.970411
  H 7.054312 0.097466 -2.036441
  H 6.769009 -2.720313 -3.183483
