 20
 0.000000
  C 0.957713 -0.015736 -0.004719
  C 2.454069 -0.001264 0.010861
  C 3.169732 0.811203 0.796073
  C 4.607725 0.828412 0.812163
  C 5.327696 1.644975 1.601355
  C 6.766372 1.660532 1.615786
  C 7.484226 2.471524 2.399577
  C 8.974331 2.502396 2.428814
  H 0.595781 -0.754676 -0.718843
  H 0.562525 0.956585 -0.300824
  H 0.560901 -0.275628 0.976610
  H 2.952995 -0.691183 -0.657023
  H 2.658364 1.497676 1.460017
  H 5.112518 0.139644 0.146040
  H 4.823395 2.333879 2.267605
  H 7.273397 0.972448 0.950316
  H 6.985267 3.162482 3.067822
  H 9.408657 1.784682 1.734724
  H 9.333688 2.270129 3.432663
  H 9.333167 3.497991 2.162674
 20
 3.611187
  C 0.961129 -0.045482 0.001200
  C 2.431716 -0.008698 0.017072
  C 3.156307 0.798994 0.800671
  C 4.592477 0.828898 0.813047
  C 5.319576 1.638835 1.600452
  C 6.754885 1.664214 1.614431
  C 7.479774 2.468066 2.396377
  C 8.968388 2.506991 2.422341
  H 0.559315 -0.742674 -0.726261
  H 0.792570 0.968826 -0.292911
  H 0.522171 -0.246528 0.976573
  H 2.948777 -0.691381 -0.646621
  H 2.651791 1.484293 1.472053
  H 5.096295 0.146035 0.139997
  H 4.816127 2.321061 2.273864
  H 7.256205 0.980452 0.940340
  H 6.981130 3.152475 3.071138
  H 9.392171 1.793432 1.719595
  H 9.335457 2.274310 3.422589
  H 9.325283 3.505262 2.166563
 20
 11.615458
  C 0.952168 -0.055882 0.001911
  C 2.427094 -0.025226 0.031791
  C 3.148677 0.781352 0.818625
  C 4.580611 0.825334 0.819185
  C 5.307219 1.630695 1.610450
  C 6.748948 1.668692 1.612771
  C 7.470173 2.463053 2.394024
  C 8.959111 2.513172 2.407402
  H 0.525725 -0.726637 -0.743317
  H 1.011630 0.969487 -0.313340
  H 0.478138 -0.175923 0.970207
  H 2.962916 -0.710330 -0.619573
  H 2.644742 1.460705 1.498515
  H 5.086184 0.154230 0.132876
  H 4.801318 2.301182 2.299312
  H 7.251398 0.995903 0.923242
  H 6.969584 3.135994 3.083818
  H 9.381956 1.810348 1.689675
  H 9.337533 2.270985 3.402427
  H 9.306730 3.518837 2.162493
 20
 22.108795
  C 0.917468 -0.079398 0.000124
  C 2.412337 -0.023584 0.028822
  C 3.130165 0.781350 0.818500
  C 4.564539 0.827187 0.817033
  C 5.299472 1.635222 1.617267
  C 6.756056 1.675316 1.614052
  C 7.484569 2.469196 2.400850
  C 8.977555 2.519774 2.407339
  H 0.485201 -0.730832 -0.748702
  H 1.143254 0.922247 -0.317717
  H 0.427484 -0.155459 0.954477
  H 2.958793 -0.701880 -0.620958
  H 2.623720 1.457741 1.504938
  H 5.070794 0.159063 0.123393
  H 4.792438 2.303927 2.315337
  H 7.258972 1.004314 0.915200
  H 6.985769 3.139329 3.098987
  H 9.398690 1.819674 1.681291
  H 9.361752 2.270946 3.400900
  H 9.324777 3.528886 2.166563
 20
 31.824541
  C 0.918446 -0.086832 0.002619
  C 2.414592 -0.012978 0.038541
  C 3.135082 0.787982 0.839188
  C 4.569519 0.843268 0.824203
  C 5.304782 1.633938 1.626885
  C 6.736521 1.678128 1.608826
  C 7.473071 2.460559 2.403751
  C 8.959649 2.515539 2.393582
  H 0.494028 -0.775368 -0.714608
  H 1.282188 0.864417 -0.391372
  H 0.404870 -0.047956 0.944783
  H 2.965634 -0.693250 -0.605418
  H 2.629763 1.448577 1.537002
  H 5.072687 0.191931 0.114403
  H 4.807319 2.281489 2.338092
  H 7.229039 1.026431 0.896038
  H 6.982241 3.115102 3.119957
  H 9.371690 1.833926 1.652508
  H 9.355066 2.249548 3.373438
  H 9.299846 3.526116 2.168827
 20
 40.160533
  C 0.915691 -0.107352 -0.000500
  C 2.408661 0.002855 0.045285
  C 3.133063 0.801742 0.854823
  C 4.556299 0.857072 0.832230
  C 5.300922 1.641787 1.639691
  C 6.732064 1.685052 1.610537
  C 7.477205 2.458568 2.406538
  C 8.961877 2.510530 2.383493
  H 0.507541 -0.813770 -0.700381
  H 1.375998 0.809262 -0.434766
  H 0.377854 -0.003018 0.922291
  H 2.961837 -0.674086 -0.611315
  H 2.628704 1.452732 1.559169
  H 5.054266 0.213188 0.113615
  H 4.809391 2.282350 2.360696
  H 7.217422 1.040584 0.888370
  H 6.994202 3.107683 3.134121
  H 9.365491 1.835166 1.632081
  H 9.365506 2.234276 3.356633
  H 9.302289 3.522107 2.165489
 20
 46.054923
  C 0.910003 -0.124767 -0.002533
  C 2.401142 0.013440 0.047800
  C 3.128727 0.808400 0.867382
  C 4.551569 0.868692 0.838040
  C 5.301031 1.646116 1.649698
  C 6.729463 1.690774 1.611671
  C 7.480184 2.456115 2.409876
  C 8.973043 2.509873 2.376909
  H 0.511082 -0.867621 -0.685110
  H 1.449456 0.755659 -0.482995
  H 0.352744 0.052865 0.889252
  H 2.937388 -0.640504 -0.603672
  H 2.623409 1.447611 1.579296
  H 5.046830 0.234672 0.111180
  H 4.813386 2.277913 2.379864
  H 7.211211 1.053046 0.878275
  H 7.003845 3.093486 3.143142
  H 9.371597 1.843003 1.616143
  H 9.385779 2.222732 3.346581
  H 9.313185 3.526460 2.166070
 20
 50.545043
  C 0.910427 -0.136389 0.001555
  C 2.394662 0.023397 0.047219
  C 3.125300 0.814356 0.875940
  C 4.545127 0.877980 0.842431
  C 5.299715 1.649461 1.656947
  C 6.731242 1.696056 1.612167
  C 7.487408 2.454428 2.411553
  C 8.976696 2.507338 2.369777
  H 0.517572 -0.894872 -0.659305
  H 1.510097 0.715736 -0.516347
  H 0.340412 0.100414 0.866409
  H 2.936939 -0.637864 -0.624375
  H 2.619694 1.441660 1.590535
  H 5.037616 0.253259 0.111411
  H 4.816069 2.272089 2.391624
  H 7.207144 1.067838 0.875067
  H 7.013168 3.088855 3.156167
  H 9.369740 1.845960 1.600826
  H 9.395298 2.212368 3.333043
  H 9.316346 3.523992 2.165028
 20
 53.696675
  C 0.910427 -0.145707 0.008479
  C 2.400906 0.026194 0.033474
  C 3.131652 0.812603 0.875721
  C 4.550552 0.881317 0.838671
  C 5.303841 1.647708 1.658909
  C 6.728527 1.697838 1.608673
  C 7.485712 2.451678 2.413359
  C 8.974973 2.508728 2.367252
  H 0.510763 -0.917277 -0.619860
  H 1.566681 0.681927 -0.555436
  H 0.328252 0.164705 0.861027
  H 2.940487 -0.627439 -0.632027
  H 2.617204 1.435970 1.605429
  H 5.048145 0.261075 0.094969
  H 4.815220 2.268518 2.408805
  H 7.207938 1.071582 0.856900
  H 7.017031 3.071941 3.158192
  H 9.366601 1.856079 1.591705
  H 9.397125 2.206206 3.325513
  H 9.311056 3.526768 2.170986
 20
 56.625161
  C 0.913846 -0.154189 0.019307
  C 2.396482 0.033010 0.024757
  C 3.128470 0.815274 0.877228
  C 4.546366 0.888523 0.838179
  C 5.300532 1.649794 1.661735
  C 6.732064 1.701093 1.607571
  C 7.492361 2.449501 2.413939
  C 8.979455 2.508041 2.363548
  H 0.499995 -0.938970 -0.596388
  H 1.608469 0.658723 -0.576549
  H 0.342733 0.205850 0.838896
  H 2.949922 -0.630158 -0.643864
  H 2.611530 1.427974 1.610233
  H 5.042004 0.279454 0.094872
  H 4.810904 2.266656 2.418915
  H 7.208489 1.081969 0.852500
  H 7.034295 3.055224 3.152824
  H 9.364791 1.866910 1.589903
  H 9.402603 2.201308 3.311835
  H 9.312805 3.521102 2.173870
 20
 59.050662
  C 0.917502 -0.169250 0.027770
  C 2.400042 0.035326 0.010303
  C 3.134961 0.815254 0.874517
  C 4.544942 0.891352 0.834790
  C 5.302684 1.651333 1.663301
  C 6.719323 1.702550 1.605782
  C 7.483515 2.447604 2.413959
  C 8.988201 2.506321 2.358507
  H 0.494076 -0.945951 -0.574388
  H 1.648921 0.648374 -0.598340
  H 0.347893 0.240631 0.836814
  H 2.963251 -0.631497 -0.652485
  H 2.613302 1.421411 1.610571
  H 5.043271 0.286426 0.086674
  H 4.814671 2.263632 2.423707
  H 7.193582 1.087087 0.846515
  H 7.020440 3.059713 3.169151
  H 9.377155 1.859931 1.569973
  H 9.418325 2.192332 3.312011
  H 9.324888 3.528470 2.171081
 20
 61.100660
  C 0.917345 -0.179865 0.043499
  C 2.402893 0.036036 -0.004999
  C 3.141215 0.811734 0.868889
  C 4.552023 0.890739 0.828851
  C 5.309044 1.648620 1.659409
  C 6.731220 1.704051 1.601954
  C 7.492838 2.447780 2.412724
  C 8.987087 2.507251 2.357084
  H 0.477452 -0.947489 -0.557914
  H 1.683693 0.647135 -0.613089
  H 0.351257 0.265897 0.835369
  H 2.956141 -0.633046 -0.658968
  H 2.621142 1.412210 1.604575
  H 5.048763 0.293241 0.082641
  H 4.818227 2.258469 2.423038
  H 7.208519 1.091237 0.839605
  H 7.025408 3.060192 3.174334
  H 9.373904 1.867654 1.571359
  H 9.415338 2.192082 3.305102
  H 9.321469 3.526016 2.173698
 20
 63.007413
  C 0.916515 -0.191444 0.063833
  C 2.403573 0.040762 -0.017880
  C 3.147368 0.812089 0.865756
  C 4.553392 0.890768 0.824647
  C 5.310963 1.647636 1.656976
  C 6.739267 1.707971 1.599327
  C 7.501038 2.451202 2.412558
  C 8.985001 2.509496 2.358703
  H 0.463321 -0.947457 -0.544272
  H 1.718143 0.658174 -0.629547
  H 0.350952 0.279983 0.839411
  H 2.951800 -0.637490 -0.667212
  H 2.626237 1.411049 1.602913
  H 5.058239 0.287909 0.064891
  H 4.827118 2.243872 2.407727
  H 7.214656 1.102352 0.841653
  H 7.036441 3.057430 3.169415
  H 9.372860 1.865968 1.566147
  H 9.415513 2.188953 3.316036
  H 9.322095 3.538622 2.175211
 20
 64.311992
  C 0.928311 -0.210562 0.089605
  C 2.403489 0.045041 -0.033641
  C 3.154039 0.815635 0.858980
  C 4.558383 0.899124 0.815110
  C 5.319217 1.655137 1.650546
  C 6.740338 1.707296 1.596421
  C 7.504231 2.447785 2.413012
  C 8.980933 2.504905 2.356070
  H 0.462024 -0.946973 -0.529137
  H 1.757010 0.671900 -0.650410
  H 0.361966 0.286553 0.846772
  H 2.953455 -0.643031 -0.673669
  H 2.631556 1.408512 1.589642
  H 5.057748 0.306059 0.067693
  H 4.831022 2.254380 2.409885
  H 7.221636 1.093655 0.826335
  H 7.039228 3.055565 3.175774
  H 9.362905 1.865374 1.563379
  H 9.411847 2.179718 3.310868
  H 9.320333 3.543078 2.173472
