 20
 0.000000
  H 1.383975 0.137746 0.394054
  C 2.453972 0.138831 0.396445
  H 3.017345 0.478023 1.240518
  C 3.074760 -0.323868 -0.755623
  C 4.452396 -0.411652 -0.974602
  C 5.123831 -0.863395 -2.100714
  C 4.621920 -1.386396 -3.404454
  C 3.129954 -1.502980 -3.695876
  C 2.901042 -2.064737 -5.096300
  O 6.448567 -0.861790 -2.097024
  H 2.419633 -0.642347 -1.548686
  H 5.073532 -0.080521 -0.149771
  H 5.075895 -2.376004 -3.531813
  H 5.076265 -0.759449 -4.180462
  H 2.655656 -0.522022 -3.641480
  H 2.655252 -2.174151 -2.978669
  H 3.338077 -1.417822 -5.854009
  H 1.834884 -2.144599 -5.296051
  H 3.337677 -3.056130 -5.196764
  H 6.820588 -0.526463 -1.260938
 20
 0.000000
  H 1.467542 0.134005 0.384754
  C 2.537538 0.135189 0.387384
  H 3.100691 0.474429 1.231585
  C 3.158626 -0.327446 -0.764548
  C 4.472982 -0.429678 -1.019555
  C 5.078349 -0.857284 -2.085501
  C 4.598741 -1.383181 -3.396453
  C 3.111930 -1.508550 -3.709760
  C 2.906936 -2.071588 -5.113374
  O 6.305334 -0.831996 -2.022761
  H 2.503706 -0.645984 -1.557758
  H 5.119102 -0.105242 -0.211420
  H 5.060367 -2.370089 -3.517085
  H 5.060733 -0.753532 -4.165729
  H 2.631106 -0.530409 -3.662381
  H 2.630707 -2.182540 -2.999576
  H 3.351234 -1.422074 -5.864608
  H 1.844316 -2.157728 -5.328765
  H 3.350840 -3.060384 -5.207368
  H 6.604439 -0.465644 -1.109300
 20
 0.000000
  H 1.544599 0.129234 0.372879
  C 2.614587 0.131261 0.377605
  H 3.175817 0.470938 1.222910
  C 3.238295 -0.330876 -0.773110
  C 4.497360 -0.446678 -1.061941
  C 5.040528 -0.851900 -2.072094
  C 4.580021 -1.380159 -3.388933
  C 3.097897 -1.512992 -3.720828
  C 2.913326 -2.077009 -5.126881
  O 6.168916 -0.807835 -1.962537
  H 2.585181 -0.649925 -1.567603
  H 5.168634 -0.129401 -0.271658
  H 5.048078 -2.364730 -3.503747
  H 5.048438 -0.748171 -4.152385
  H 2.611606 -0.537282 -3.679502
  H 2.611215 -2.189416 -3.016703
  H 3.363725 -1.425245 -5.872514
  H 1.853933 -2.168483 -5.355558
  H 3.363339 -3.063558 -5.215281
  H 6.382047 -0.409217 -0.968611
 20
 0.000000
  H 1.613446 0.123381 0.358303
  C 2.683399 0.127203 0.367501
  H 3.240522 0.467810 1.215146
  C 3.312685 -0.333873 -0.780601
  C 4.526613 -0.462192 -1.100625
  C 5.012188 -0.847465 -2.061054
  C 4.566629 -1.377500 -3.382315
  C 3.088347 -1.516136 -3.728657
  C 2.919720 -2.080844 -5.136435
  O 6.041253 -0.789668 -1.917253
  H 2.663433 -0.654011 -1.577817
  H 5.222540 -0.152368 -0.328925
  H 5.039641 -2.360226 -3.492537
  H 5.039994 -0.743665 -4.141171
  H 2.597854 -0.542340 -3.692097
  H 2.597471 -2.194476 -3.029303
  H 3.374815 -1.427305 -5.877649
  H 1.862975 -2.176466 -5.375438
  H 3.374437 -3.065619 -5.220420
  H 6.153089 -0.358583 -0.842360
 20
 0.000000
  H 1.672342 0.116653 0.341545
  C 2.742195 0.123364 0.357945
  H 3.292678 0.465458 1.209321
  C 3.380438 -0.335989 -0.785896
  C 4.561503 -0.475512 -1.133844
  C 4.995162 -0.844309 -2.053200
  C 4.559446 -1.375478 -3.377286
  C 3.083775 -1.517918 -3.733093
  C 2.925629 -2.083046 -5.141919
  O 5.924056 -0.777923 -1.887974
  H 2.737434 -0.657867 -1.587463
  H 5.280715 -0.173151 -0.380751
  H 5.035684 -2.356982 -3.484466
  H 5.036031 -0.740420 -4.133097
  H 2.590551 -0.545389 -3.699686
  H 2.590176 -2.197525 -3.036894
  H 3.383781 -1.428332 -5.880207
  H 1.870686 -2.181388 -5.387689
  H 3.383410 -3.066647 -5.222980
  H 5.918057 -0.315413 -0.734710
 20
 0.000000
  H 1.719694 0.109499 0.323724
  C 2.789313 0.120251 0.350196
  H 3.330459 0.464398 1.206715
  C 3.440028 -0.336657 -0.787582
  C 4.602155 -0.485490 -1.158733
  C 4.991134 -0.842911 -2.049729
  C 4.559239 -1.374515 -3.374893
  C 3.084600 -1.518429 -3.734363
  C 2.930518 -2.083715 -5.143577
  O 5.818931 -0.773113 -1.875977
  H 2.805820 -0.660941 -1.595165
  H 5.342116 -0.190155 -0.423154
  H 5.036723 -2.355542 -3.480888
  H 5.037064 -0.738979 -4.129519
  H 2.590322 -0.546394 -3.702183
  H 2.589953 -2.198531 -3.039391
  H 3.389847 -1.428542 -5.880725
  H 1.876288 -2.183112 -5.391966
  H 3.389483 -3.066857 -5.223499
  H 5.678963 -0.281441 -0.649988
 20
 0.000000
  H 1.752593 0.102986 0.307494
  C 2.821784 0.118598 0.346087
  H 3.351618 0.465172 1.208680
  C 3.487424 -0.335307 -0.784235
  C 4.645233 -0.490088 -1.170210
  C 5.000816 -0.843945 -2.052321
  C 4.566121 -1.375235 -3.376694
  C 3.090724 -1.518076 -3.733478
  C 2.933663 -2.083249 -5.142407
  O 5.732711 -0.775592 -1.882148
  H 2.863889 -0.662445 -1.598948
  H 5.401046 -0.200375 -0.448642
  H 5.042697 -2.356609 -3.483558
  H 5.043032 -0.740047 -4.132191
  H 2.597214 -0.545681 -3.700398
  H 2.596850 -2.197817 -3.037604
  H 3.392126 -1.428410 -5.880392
  H 1.878911 -2.181878 -5.388874
  H 3.391766 -3.066725 -5.223164
  H 5.453428 -0.258905 -0.593778
 20
 0.000000
  H 1.770327 0.098378 0.296007
  C 2.838926 0.118884 0.346805
  H 3.357285 0.467852 1.215384
  C 3.519499 -0.331933 -0.775835
  C 4.683516 -0.488111 -1.165289
  C 5.020341 -0.847556 -2.061332
  C 4.577701 -1.377938 -3.383437
  C 3.100186 -1.517719 -3.732583
  C 2.934669 -2.082559 -5.140678
  O 5.673287 -0.783676 -1.902286
  H 2.906811 -0.661898 -1.597608
  H 5.448407 -0.201722 -0.452007
  H 5.051683 -2.360297 -3.492758
  H 5.052015 -0.743737 -4.141394
  H 2.608870 -0.544303 -3.696957
  H 2.608509 -2.196438 -3.034161
  H 3.390664 -1.428668 -5.881029
  H 1.878453 -2.179000 -5.381687
  H 3.390308 -3.066982 -5.223798
  H 5.270099 -0.246878 -0.563770
 20
 0.000000
  H 1.777162 0.095702 0.289331
  C 2.845005 0.121118 0.352375
  H 3.351765 0.472440 1.226832
  C 3.540469 -0.326534 -0.762382
  C 4.715385 -0.479987 -1.145043
  C 5.045685 -0.853678 -2.076598
  C 4.591630 -1.382722 -3.395365
  C 3.111143 -1.518087 -3.733497
  C 2.933458 -2.082415 -5.140315
  O 5.636218 -0.795497 -1.931741
  H 2.938763 -0.659289 -1.591117
  H 5.483833 -0.194923 -0.435060
  H 5.061849 -2.366491 -3.508202
  H 5.062177 -0.749932 -4.156841
  H 2.623014 -0.543209 -3.694224
  H 2.622656 -2.195342 -3.031424
  H 3.385878 -1.429882 -5.884049
  H 1.875192 -2.175700 -5.373450
  H 3.385524 -3.068194 -5.226815
  H 5.124749 -0.239807 -0.546122
 20
 0.000000
  H 1.774361 0.095339 0.288414
  C 2.841206 0.126041 0.364644
  H 3.335379 0.479841 1.245287
  C 3.552598 -0.318127 -0.741425
  C 4.740916 -0.465218 -1.108226
  C 5.076268 -0.863173 -2.100269
  C 4.607272 -1.390408 -3.414526
  C 3.123029 -1.519962 -3.738169
  C 2.929390 -2.083564 -5.143174
  O 5.620602 -0.811092 -1.970605
  H 2.962830 -0.653832 -1.577522
  H 5.508408 -0.179798 -0.397353
  H 5.072506 -2.376012 -3.531936
  H 5.072832 -0.759454 -4.180579
  H 2.639133 -0.543178 -3.694144
  H 2.638776 -2.195310 -3.031341
  H 3.377074 -1.432795 -5.891308
  H 1.868537 -2.172695 -5.365952
  H 3.376722 -3.071106 -5.234070
  H 5.011137 -0.232614 -0.528175
 20
 0.000000
  H 1.759099 0.098857 0.297167
  C 2.824556 0.135665 0.388630
  H 3.304064 0.492256 1.276230
  C 3.554211 -0.304378 -0.707147
  C 4.759349 -0.442189 -1.050815
  C 5.113820 -0.878104 -2.137488
  C 4.624963 -1.402834 -3.445500
  C 3.135962 -1.524608 -3.749747
  C 2.921061 -2.087142 -5.152091
  O 5.633293 -0.832112 -2.022993
  H 2.978379 -0.643423 -1.551573
  H 5.521879 -0.154931 -0.335356
  H 5.083462 -2.390856 -3.568937
  H 5.083785 -0.774300 -4.217584
  H 2.657798 -0.545306 -3.699445
  H 2.657443 -2.197436 -3.036637
  H 3.362347 -1.438700 -5.906026
  H 1.856937 -2.170713 -5.361007
  H 3.361996 -3.077009 -5.248783
  H 4.932591 -0.219454 -0.495352
 20
 0.000000
  H 1.730318 0.107323 0.318252
  C 2.794011 0.150646 0.425964
  H 3.257726 0.510124 1.320763
  C 3.542985 -0.284876 -0.658529
  C 4.767160 -0.413003 -0.978053
  C 5.154359 -0.897911 -2.186858
  C 4.642427 -1.419582 -3.487245
  C 3.148244 -1.532236 -3.768761
  C 2.908563 -2.093382 -5.167643
  O 5.677741 -0.857265 -2.085690
  H 2.982193 -0.627400 -1.511630
  H 5.522355 -0.123072 -0.255923
  H 5.092944 -2.410383 -3.617609
  H 5.093265 -0.793829 -4.266261
  H 2.676898 -0.550032 -3.711224
  H 2.676542 -2.202159 -3.048410
  H 3.342266 -1.447615 -5.928245
  H 1.840886 -2.170435 -5.360315
  H 3.341914 -3.085922 -5.270997
  H 4.900292 -0.196610 -0.438389
 20
 0.000000
  H 1.697225 0.117399 0.343348
  C 2.758909 0.167098 0.466965
  H 3.207016 0.529314 1.368588
  C 3.526629 -0.263876 -0.606177
  C 4.766145 -0.382979 -0.903196
  C 5.189703 -0.917440 -2.235531
  C 4.655989 -1.436076 -3.528355
  C 3.157259 -1.540042 -3.788218
  C 2.894109 -2.099728 -5.183463
  O 5.731196 -0.881477 -2.146041
  H 2.980732 -0.609722 -1.467560
  H 5.513749 -0.090333 -0.174293
  H 5.098813 -2.429470 -3.665183
  H 5.099134 -0.812918 -4.313839
  H 2.692504 -0.555120 -3.723907
  H 2.692147 -2.207246 -3.061089
  H 3.320503 -1.456458 -5.950289
  H 1.823325 -2.170574 -5.360664
  H 3.320150 -3.094763 -5.293036
  H 4.885607 -0.169879 -0.371743
 20
 0.000000
  H 1.662119 0.127747 0.369125
  C 2.721455 0.183974 0.509023
  H 3.153432 0.548901 1.417401
  C 3.508197 -0.242219 -0.552188
  C 4.759300 -0.352045 -0.826071
  C 5.219849 -0.935604 -2.280803
  C 4.665462 -1.451225 -3.566114
  C 3.162731 -1.546874 -3.805247
  C 2.877236 -2.105040 -5.196705
  O 5.784112 -0.904305 -2.202945
  H 2.977725 -0.591380 -1.421833
  H 5.499050 -0.056644 -0.090299
  H 5.100843 -2.447053 -3.709008
  H 5.101163 -0.830502 -4.357668
  H 2.704373 -0.559394 -3.734561
  H 2.704016 -2.211518 -3.071737
  H 3.296557 -1.464114 -5.969372
  H 1.803730 -2.169944 -5.359096
  H 3.296203 -3.102417 -5.312114
  H 4.866816 -0.141932 -0.302064
