 29
 0.000000
  C 0.905010 0.048732 0.272087
  C 2.397119 0.059132 0.087713
  C 3.239386 -0.012339 1.354442
  C 2.525486 -0.088357 2.701541
  C 3.528099 -0.153060 3.848286
  C 2.993457 0.127312 -1.120556
  C 2.355164 0.204812 -2.494030
  C 0.844763 0.217254 -2.714439
  H 0.622485 0.276994 -3.773184
  C 4.452435 0.132137 -1.205992
  C 5.194383 0.194637 -2.313741
  O 6.554207 0.195407 -2.327314
  H 0.603708 -0.009985 1.312632
  H 0.461655 -0.817161 -0.212643
  H 0.461655 0.963659 -0.112156
  H 3.885380 0.871450 1.384513
  H 3.885382 -0.893901 1.284900
  H 1.892847 -0.977844 2.744588
  H 1.892838 0.790639 2.844379
  H 4.163174 -1.032384 3.760772
  H 3.004870 -0.206803 4.800630
  H 4.163168 0.730525 3.860245
  H 2.745123 -0.643731 -3.066940
  H 2.745121 1.112421 -2.967842
  H 0.388658 1.076511 -2.230345
  H 0.388658 -0.691011 -2.330082
  H 4.996635 0.079539 -0.273824
  H 4.818912 0.251529 -3.321943
  H 6.882645 0.144223 -1.420191
 29
 6.849771
  C 0.926273 0.049564 0.257343
  C 2.416020 0.060728 0.059440
  C 3.267340 -0.010056 1.313991
  C 2.486180 -0.094224 2.805521
  C 3.499305 -0.158105 3.937696
  C 3.003378 0.129088 -1.152018
  C 2.355647 0.206333 -2.520990
  C 0.843614 0.218055 -2.728641
  H 0.617494 0.277909 -3.789399
  C 4.462030 0.134528 -1.248373
  C 5.196071 0.197295 -2.360850
  O 6.555832 0.198555 -2.383115
  H 0.639900 -0.009382 1.301930
  H 0.478086 -0.815534 -0.224544
  H 0.478085 0.963380 -0.124165
  H 3.910423 0.872284 1.345486
  H 3.910426 -0.890338 1.246027
  H 1.856475 -0.982621 2.848451
  H 1.856467 0.783699 2.948120
  H 4.133918 -1.036958 3.842822
  H 2.986148 -0.212152 4.895418
  H 4.133914 0.725841 3.942289
  H 2.742819 -0.641999 -3.096096
  H 2.742817 1.113979 -2.997009
  H 0.389134 1.076802 -2.243404
  H 0.389134 -0.689830 -2.343090
  H 5.013407 0.082158 -0.320232
  H 4.813466 0.254030 -3.366287
  H 6.891004 0.147507 -1.478376
 29
 21.455066
  C 0.952824 0.049453 0.259329
  C 2.438268 0.061927 0.038229
  C 3.297723 -0.007525 1.269146
  C 2.436969 -0.099479 2.898638
  C 3.462483 -0.161778 4.002799
  C 3.015572 0.130575 -1.178344
  C 2.356394 0.207533 -2.542239
  C 0.842570 0.218244 -2.732001
  H 0.615954 0.278260 -3.795603
  C 4.474254 0.136744 -1.287620
  C 5.200376 0.199817 -2.405545
  O 6.560049 0.201559 -2.436362
  H 0.698056 -0.009940 1.311827
  H 0.495365 -0.813806 -0.217560
  H 0.495365 0.960879 -0.117418
  H 3.931303 0.872137 1.322327
  H 3.931309 -0.887585 1.223031
  H 1.813965 -0.985835 2.924439
  H 1.813960 0.778340 3.023988
  H 4.096408 -1.040066 3.897481
  H 2.962229 -0.216258 4.968213
  H 4.096398 0.722778 3.996953
  H 2.740969 -0.640500 -3.119457
  H 2.740965 1.115110 -3.020385
  H 0.388423 1.076557 -2.247339
  H 0.388422 -0.689142 -2.346973
  H 5.034243 0.084615 -0.363737
  H 4.810046 0.256376 -3.407893
  H 6.902930 0.150677 -1.534547
 29
 37.301694
  C 0.971117 0.050319 0.243948
  C 2.456389 0.063518 0.010014
  C 3.328810 -0.005464 1.232614
  C 2.391941 -0.105308 3.001886
  C 3.438012 -0.166439 4.085344
  C 3.025967 0.132390 -1.210525
  C 2.355964 0.209047 -2.569083
  C 0.840488 0.218708 -2.740243
  H 0.608954 0.278605 -3.801760
  C 4.482813 0.139053 -1.328557
  C 5.203165 0.202294 -2.449459
  O 6.562357 0.204370 -2.486224
  H 0.736949 -0.009258 1.299721
  H 0.508141 -0.811321 -0.230700
  H 0.508141 0.959887 -0.130753
  H 3.956603 0.878788 1.310998
  H 3.956603 -0.892912 1.211026
  H 1.772155 -0.996258 3.009626
  H 1.772148 0.779111 3.109806
  H 4.071240 -1.044162 3.969951
  H 2.952669 -0.221455 5.060290
  H 4.071239 0.718701 4.069422
  H 2.736807 -0.638746 -3.148871
  H 2.736816 1.116697 -3.049827
  H 0.388413 1.077292 -2.253700
  H 0.388409 -0.689163 -2.353370
  H 5.048176 0.087089 -0.407585
  H 4.807514 0.258735 -3.449739
  H 6.910367 0.153605 -1.586455
 29
 53.180449
  C 0.998826 0.050222 0.245698
  C 2.478123 0.064791 -0.012510
  C 3.358660 -0.003091 1.190584
  C 2.345351 -0.110813 3.099462
  C 3.404102 -0.170563 4.158439
  C 3.036117 0.133978 -1.238636
  C 2.354847 0.210393 -2.592917
  C 0.837940 0.219294 -2.750616
  H 0.601630 0.279200 -3.812288
  C 4.492184 0.141183 -1.366262
  C 5.207239 0.204721 -2.492449
  O 6.566377 0.207218 -2.536681
  H 0.792442 -0.009768 1.308786
  H 0.527592 -0.810500 -0.221732
  H 0.527592 0.958064 -0.121934
  H 3.976237 0.881210 1.292443
  H 3.976244 -0.893236 1.192315
  H 1.732038 -1.001985 3.088933
  H 1.732031 0.775881 3.189254
  H 4.035752 -1.047593 4.033736
  H 2.933116 -0.226015 5.141127
  H 4.035745 0.714930 4.133189
  H 2.732340 -0.637266 -3.175019
  H 2.732334 1.118142 -3.075958
  H 0.387894 1.077745 -2.262843
  H 0.387896 -0.688573 -2.362512
  H 5.062771 0.089364 -0.447852
  H 4.805554 0.261030 -3.490444
  H 6.920084 0.156576 -1.639053
 29
 67.529862
  C 1.024656 0.050911 0.233471
  C 2.503310 0.066375 -0.040576
  C 3.392739 -0.001091 1.155132
  C 2.297054 -0.116513 3.200457
  C 3.368853 -0.175363 4.243487
  C 3.050655 0.135842 -1.271666
  C 2.354953 0.211727 -2.616560
  C 0.836270 0.219278 -2.750345
  H 0.586193 0.278982 -3.808444
  C 4.504763 0.143706 -1.410984
  C 5.209574 0.207375 -2.539515
  O 6.567806 0.210435 -2.593710
  H 0.838152 -0.009231 1.299270
  H 0.547610 -0.809524 -0.229740
  H 0.547609 0.957995 -0.130002
  H 4.001826 0.886939 1.283416
  H 4.001830 -0.897907 1.182701
  H 1.687966 -1.011234 3.169875
  H 1.687957 0.775963 3.270722
  H 3.999662 -1.052630 4.111920
  H 2.909543 -0.231249 5.233852
  H 3.999656 0.711139 4.211444
  H 2.725968 -0.635769 -3.202889
  H 2.725971 1.119808 -3.103835
  H 0.391941 1.077860 -2.256878
  H 0.391937 -0.689365 -2.356592
  H 5.081635 0.092106 -0.496451
  H 4.799988 0.263490 -3.534141
  H 6.928443 0.159960 -1.698997
