 9
 0.000000
  C 1.048915 -0.112477 -0.038697
  C 2.547348 -0.142645 -0.037871
  C 3.250097 -1.258340 -0.044455
  H 4.325796 -1.271571 -0.045210
  H 0.688225 0.913783 -0.032106
  H 0.651100 -0.615708 0.840523
  H 0.653097 -0.601795 -0.927306
  H 3.050280 0.814899 -0.033633
  H 2.749086 -2.213165 -0.049146
 9
 3.392227
  C 1.039396 -0.086474 0.002987
  C 2.517681 -0.142774 -0.040034
  C 3.217534 -1.262501 -0.053454
  H 4.292142 -1.265264 -0.094772
  H 0.646847 0.922646 -0.028454
  H 0.615258 -0.620202 0.845637
  H 0.854738 -0.610461 -0.911885
  H 3.043573 0.806113 -0.055806
  H 2.737769 -2.227807 -0.032171
 9
 11.611806
  C 1.021669 -0.072067 0.033769
  C 2.502116 -0.140250 -0.042849
  C 3.197534 -1.263618 -0.059332
  H 4.272468 -1.269541 -0.147304
  H 0.609757 0.926685 -0.026179
  H 0.583622 -0.637667 0.844278
  H 1.028127 -0.601597 -0.894351
  H 3.042307 0.795377 -0.078105
  H 2.720378 -2.227406 -0.003058
 9
 22.116620
  C 1.004498 -0.063997 0.057128
  C 2.489609 -0.148805 -0.054455
  C 3.190423 -1.271353 -0.064291
  H 4.249247 -1.272282 -0.176526
  H 0.590244 0.929693 -0.013196
  H 0.556987 -0.656891 0.835109
  H 1.162379 -0.572547 -0.876282
  H 3.038175 0.795928 -0.113069
  H 2.719890 -2.236254 0.022958
 9
 32.553652
  C 0.990598 -0.054998 0.075417
  C 2.476627 -0.159748 -0.069838
  C 3.186016 -1.279081 -0.062891
  H 4.258492 -1.274220 -0.203184
  H 0.581805 0.939520 0.015686
  H 0.528744 -0.684942 0.814238
  H 1.267628 -0.523188 -0.869046
  H 3.021373 0.782477 -0.158396
  H 2.722392 -2.247561 0.063948
 9
 40.478318
  C 0.982033 -0.047481 0.091569
  C 2.470578 -0.172082 -0.092102
  C 3.190948 -1.289355 -0.049705
  H 4.249075 -1.283698 -0.224328
  H 0.590529 0.950927 0.092188
  H 0.500311 -0.745677 0.754068
  H 1.350575 -0.434382 -0.884113
  H 2.999056 0.764365 -0.240288
  H 2.741783 -2.247894 0.145462
 9
 46.520999
  C 0.981727 -0.042427 0.105667
  C 2.462617 -0.184606 -0.107772
  C 3.196427 -1.296795 -0.034665
  H 4.246465 -1.291180 -0.249557
  H 0.598753 0.958818 0.157104
  H 0.480849 -0.789775 0.693286
  H 1.419770 -0.361000 -0.893525
  H 2.974725 0.750225 -0.309062
  H 2.760280 -2.248800 0.215396
 9
 51.450419
  C 0.980585 -0.037407 0.118858
  C 2.459270 -0.191788 -0.128931
  C 3.203446 -1.300025 -0.024856
  H 4.250807 -1.295520 -0.257434
  H 0.602024 0.961034 0.203045
  H 0.469506 -0.816616 0.652562
  H 1.470244 -0.314235 -0.897520
  H 2.964110 0.740309 -0.362727
  H 2.773149 -2.247677 0.253089
 9
 55.887961
  C 0.984888 -0.034822 0.128461
  C 2.456654 -0.192295 -0.145110
  C 3.207156 -1.300465 -0.023332
  H 4.252147 -1.298066 -0.267726
  H 0.601009 0.961156 0.220357
  H 0.470685 -0.831810 0.632286
  H 1.515321 -0.294912 -0.896047
  H 2.961079 0.739021 -0.388554
  H 2.780036 -2.244180 0.272386
 9
 59.670462
  C 0.989137 -0.031535 0.140717
  C 2.457707 -0.189707 -0.158328
  C 3.211338 -1.300576 -0.026504
  H 4.255868 -1.299421 -0.273655
  H 0.596191 0.959896 0.224382
  H 0.476358 -0.840074 0.623036
  H 1.554332 -0.289725 -0.897170
  H 2.964032 0.740672 -0.403227
  H 2.784290 -2.240278 0.279185
 9
 62.931743
  C 0.992339 -0.027710 0.154946
  C 2.460426 -0.188389 -0.171359
  C 3.219011 -1.300350 -0.029721
  H 4.263206 -1.298967 -0.278081
  H 0.591024 0.961939 0.222913
  H 0.477816 -0.844366 0.619726
  H 1.587240 -0.290751 -0.900916
  H 2.970415 0.740674 -0.412767
  H 2.792216 -2.238730 0.277858
 9
 65.888372
  C 1.000420 -0.024526 0.170046
  C 2.463037 -0.186595 -0.185213
  C 3.225528 -1.300747 -0.034128
  H 4.270634 -1.297922 -0.279996
  H 0.588694 0.960418 0.218620
  H 0.482103 -0.847350 0.618285
  H 1.618155 -0.292407 -0.907515
  H 2.975667 0.743400 -0.421594
  H 2.797605 -2.238705 0.275151
 9
 68.464636
  C 1.008483 -0.021055 0.188712
  C 2.467541 -0.184548 -0.197929
  C 3.233217 -1.301882 -0.041838
  H 4.276928 -1.300396 -0.291524
  H 0.583931 0.959911 0.210589
  H 0.484209 -0.850880 0.613716
  H 1.648376 -0.296747 -0.920322
  H 2.983823 0.745806 -0.420547
  H 2.806723 -2.234689 0.280040
 9
 70.766620
  C 1.020277 -0.015221 0.212345
  C 2.472381 -0.181438 -0.209995
  C 3.241087 -1.302326 -0.044909
  H 4.286587 -1.299276 -0.287869
  H 0.577935 0.956373 0.196504
  H 0.490938 -0.850061 0.619830
  H 1.677907 -0.306111 -0.934489
  H 2.991156 0.748647 -0.431388
  H 2.809131 -2.238561 0.260926
