13

C 1.008212 -0.071253 0.048125
C 2.504001 -0.082532 0.024541
C 3.217997 -0.596559 -0.982714
C 4.656094 -0.607066 -1.002463
C 5.37703 -1.121614 -2.014146
H 6.446926724493034 -1.1286385571769284 -2.0272476989565025
H 0.648913 0.39709 0.963825
H 0.611756 -1.086087 0.013759
H 0.610612 0.493128 -0.795384
H 3.005636 0.353676 0.878504
H 2.705785 -1.029859 -1.83323
H 5.160088 -0.172793 -0.147887
H 4.873535 -1.555979 -2.868908
