 15
 0.000000
  C 0.881842 0.045883 0.344356
  C 2.351716 0.063667 0.045361
  H 2.996862 0.012716 0.911574
  C 2.931684 0.129501 -1.146054
  C 2.375768 0.207210 -2.540140
  C 0.866877 0.219408 -2.750158
  H 0.656208 0.278831 -3.815129
  H 4.015960 0.130893 -1.167446
  H 0.707357 -0.012926 1.417330
  H 0.400842 -0.815788 -0.113547
  H 0.395990 0.950730 -0.013507
  H 2.792131 -0.639310 -3.098465
  H 2.792570 1.110191 -3.001235
  H 0.408608 1.077807 -2.268000
  H 0.407894 -0.686886 -2.366441
 15
 5.912249
  C 0.874210 0.079466 0.379097
  C 2.307483 0.069334 0.041000
  H 3.009277 0.026574 0.926021
  C 2.902896 0.119558 -1.142011
  C 2.368770 0.194821 -2.547069
  C 0.860041 0.237164 -2.759919
  H 0.651356 0.293390 -3.827505
  H 3.988362 0.095525 -1.142093
  H 0.684736 -0.014821 1.446468
  H 0.652228 -0.832968 -0.155268
  H 0.315254 0.929526 -0.006902
  H 2.775181 -0.665060 -3.092299
  H 2.809662 1.084713 -3.010654
  H 0.421990 1.109778 -2.286382
  H 0.377857 -0.655789 -2.373000
 15
 18.335104
  C 0.867225 0.073501 0.372342
  C 2.286042 0.091878 0.047594
  H 2.995750 0.086946 0.930924
  C 2.892783 0.117844 -1.133259
  C 2.359088 0.176077 -2.536309
  C 0.852680 0.274470 -2.742493
  H 0.642438 0.313321 -3.807536
  H 3.971893 0.063037 -1.132011
  H 0.647754 -0.034778 1.420445
  H 0.915819 -0.849087 -0.166686
  H 0.251709 0.833093 -0.085973
  H 2.730410 -0.713062 -3.062499
  H 2.830435 1.038470 -3.023383
  H 0.455308 1.178598 -2.291154
  H 0.332585 -0.585630 -2.332682
 15
 32.693610
  C 0.849982 0.077084 0.391399
  C 2.271249 0.086404 0.044774
  H 2.980190 0.080725 0.927770
  C 2.888599 0.109580 -1.133372
  C 2.357850 0.168945 -2.544035
  C 0.852108 0.294671 -2.751517
  H 0.639867 0.329796 -3.818473
  H 3.965701 0.046235 -1.122715
  H 0.630517 -0.008883 1.440538
  H 1.103454 -0.840605 -0.117649
  H 0.190375 0.759505 -0.117198
  H 2.710633 -0.729973 -3.063689
  H 2.845273 1.017884 -3.037434
  H 0.474569 1.211301 -2.306971
  H 0.316195 -0.550969 -2.332459
 15
 44.918358
  C 0.830144 0.085961 0.403410
  C 2.252706 0.074826 0.028309
  H 2.943690 0.056796 0.916999
  C 2.890056 0.099940 -1.145286
  C 2.365458 0.167050 -2.556228
  C 0.858677 0.308350 -2.748319
  H 0.634684 0.346766 -3.804478
  H 3.973541 0.032219 -1.118496
  H 0.627327 0.034484 1.452374
  H 1.237608 -0.827255 -0.058747
  H 0.131200 0.693074 -0.145515
  H 2.706585 -0.739842 -3.082743
  H 2.861074 1.016740 -3.056080
  H 0.499600 1.221930 -2.301743
  H 0.319233 -0.533737 -2.322606
 15
 54.056414
  C 0.816950 0.094974 0.416404
  C 2.241112 0.059819 0.019852
  H 2.927811 0.032548 0.910318
  C 2.888198 0.087529 -1.157171
  C 2.370016 0.164965 -2.564873
  C 0.869575 0.320676 -2.754442
  H 0.642735 0.365546 -3.816763
  H 3.965918 0.026772 -1.121638
  H 0.625365 0.094420 1.478963
  H 1.348858 -0.822860 0.009463
  H 0.092420 0.606265 -0.174517
  H 2.699514 -0.738490 -3.093593
  H 2.868116 1.003353 -3.058131
  H 0.515264 1.249600 -2.295882
  H 0.323541 -0.523121 -2.329699
 15
 61.595456
  C 0.808256 0.106929 0.420762
  C 2.234012 0.048103 0.018423
  H 2.903143 0.017064 0.911437
  C 2.893097 0.079002 -1.161860
  C 2.379426 0.162819 -2.570667
  C 0.869873 0.328039 -2.751194
  H 0.638359 0.377386 -3.801369
  H 3.969707 0.014841 -1.119170
  H 0.616267 0.122500 1.485717
  H 1.435645 -0.809530 0.039243
  H 0.079395 0.559851 -0.195659
  H 2.703753 -0.749514 -3.107874
  H 2.891166 1.015717 -3.071996
  H 0.523336 1.251308 -2.289183
  H 0.321410 -0.517103 -2.325088
 15
 67.101863
  C 0.807834 0.130386 0.436534
  C 2.234042 0.026387 0.027360
  H 2.917654 -0.010600 0.924798
  C 2.892100 0.071403 -1.161142
  C 2.376409 0.165337 -2.572933
  C 0.877935 0.328670 -2.757629
  H 0.647726 0.387399 -3.821121
  H 3.979777 0.011419 -1.116697
  H 0.617601 0.159170 1.482745
  H 1.499988 -0.815649 0.070316
  H 0.058004 0.534376 -0.215514
  H 2.697861 -0.730486 -3.111850
  H 2.878182 1.007770 -3.058389
  H 0.528700 1.248059 -2.288236
  H 0.331018 -0.521281 -2.341213
 15
 72.068777
  C 0.807762 0.156522 0.438299
  C 2.232948 0.006046 0.033524
  H 2.920053 -0.023095 0.927818
  C 2.894114 0.063337 -1.163257
  C 2.378331 0.164129 -2.572018
  C 0.884101 0.326480 -2.755262
  H 0.654992 0.389680 -3.815643
  H 3.974842 0.004073 -1.118795
  H 0.603627 0.187319 1.492124
  H 1.554576 -0.825897 0.082730
  H 0.061499 0.507467 -0.233759
  H 2.697548 -0.726667 -3.116936
  H 2.886976 1.022340 -3.062092
  H 0.533813 1.243607 -2.279664
  H 0.344210 -0.518715 -2.347932
 15
 74.880642
  C 0.818302 0.207715 0.448403
  C 2.234238 -0.018776 0.040891
  H 2.936445 -0.022318 0.933863
  C 2.898156 0.066132 -1.164028
  C 2.383565 0.168067 -2.569701
  C 0.886775 0.332761 -2.760829
  H 0.663034 0.395823 -3.824879
  H 3.977885 -0.005415 -1.121391
  H 0.591970 0.210062 1.495887
  H 1.605293 -0.864143 0.102137
  H 0.048600 0.460653 -0.242905
  H 2.707570 -0.728199 -3.122292
  H 2.888773 1.018762 -3.050712
  H 0.534684 1.250664 -2.287135
  H 0.345129 -0.510752 -2.357762
 15
 76.625845
  C 0.834539 0.273408 0.452507
  C 2.233762 -0.041493 0.050627
  H 2.934876 -0.045995 0.941374
  C 2.905840 0.072487 -1.161687
  C 2.391085 0.171191 -2.566840
  C 0.886872 0.326630 -2.760557
  H 0.663556 0.388836 -3.825318
  H 3.987021 -0.008800 -1.117084
  H 0.581842 0.208745 1.491340
  H 1.647953 -0.903979 0.083739
  H 0.058127 0.471407 -0.251186
  H 2.722523 -0.720711 -3.122168
  H 2.890017 1.022546 -3.044092
  H 0.528819 1.238680 -2.288161
  H 0.347193 -0.524990 -2.356456
 15
 76.809997
  C 0.848106 0.338956 0.452366
  C 2.227135 -0.062527 0.060466
  H 2.923544 -0.057353 0.945937
  C 2.912920 0.074720 -1.160497
  C 2.395772 0.171798 -2.563751
  C 0.890126 0.320580 -2.752520
  H 0.663016 0.377431 -3.814376
  H 3.995022 -0.016056 -1.113338
  H 0.569016 0.197798 1.475328
  H 1.704476 -0.961694 0.052324
  H 0.070378 0.484856 -0.265657
  H 2.729697 -0.718618 -3.121022
  H 2.892304 1.022792 -3.044176
  H 0.531222 1.228341 -2.284234
  H 0.354960 -0.533129 -2.342391
 15
 76.622268
  C 0.872723 0.398644 0.474181
  C 2.215491 -0.090395 0.071559
  H 2.909336 -0.106013 0.941382
  C 2.909861 0.074333 -1.158532
  C 2.399526 0.170006 -2.560037
  C 0.892749 0.299570 -2.763175
  H 0.673917 0.354823 -3.830352
  H 3.990986 -0.014625 -1.106330
  H 0.578660 0.190823 1.485131
  H 1.744300 -1.007205 0.009547
  H 0.093727 0.539725 -0.244848
  H 2.750660 -0.713404 -3.119091
  H 2.891013 1.032307 -3.033871
  H 0.517009 1.202490 -2.296731
  H 0.366854 -0.559328 -2.359209
 15
 75.885018
  C 0.885195 0.433762 0.477217
  C 2.204069 -0.114879 0.076133
  H 2.904004 -0.121479 0.944298
  C 2.912604 0.066850 -1.161130
  C 2.403480 0.163137 -2.560719
  C 0.898453 0.290227 -2.762132
  H 0.678014 0.340427 -3.828935
  H 3.994304 -0.031068 -1.105108
  H 0.573748 0.189029 1.475558
  H 1.813064 -1.067237 -0.033468
  H 0.104860 0.562533 -0.248461
  H 2.755999 -0.718912 -3.121242
  H 2.894173 1.024538 -3.032851
  H 0.522564 1.194327 -2.298239
  H 0.374537 -0.567560 -2.351930
