 20
 0.000000
  C 0.991705 0.129669 0.372750
  C 2.463206 0.144736 0.413349
  C 3.211604 0.620587 1.597797
  C 2.395333 1.100668 2.790409
  H 3.063556 1.419356 3.584644
  C 3.129917 -0.311800 -0.720762
  C 4.514778 -0.378929 -0.889440
  C 5.101794 -0.842840 -2.045282
  H 4.540254 -1.189799 -2.904548
  O 6.384250 -0.920150 -2.246203
  H 0.530264 0.495699 1.281493
  H 0.637869 -0.884694 0.180628
  H 0.639467 0.729313 -0.468333
  H 3.872930 1.434513 1.280243
  H 3.871712 -0.187419 1.932483
  H 1.763060 0.306776 3.180926
  H 1.764427 1.944889 2.522491
  H 2.515702 -0.644022 -1.546983
  H 5.159449 -0.054505 -0.083999
  H 6.930556 -0.614266 -1.494133
 20
 2.054793
  C 1.006734 0.157010 0.352414
  C 2.500895 0.109562 0.443231
  C 3.208159 0.556370 1.660232
  C 2.359587 1.106721 2.795220
  H 3.013332 1.361874 3.630115
  C 3.141091 -0.364202 -0.697049
  C 4.517835 -0.295833 -0.932822
  C 5.098646 -0.880798 -2.038368
  H 4.501082 -1.375498 -2.798990
  O 6.369851 -0.938382 -2.287899
  H 0.533824 0.525757 1.255142
  H 0.663829 -0.851191 0.134933
  H 0.768935 0.822170 -0.480426
  H 3.910914 1.342744 1.352737
  H 3.795869 -0.287173 2.031585
  H 1.661910 0.362711 3.161920
  H 1.825425 2.001464 2.496121
  H 2.541013 -0.836159 -1.463539
  H 5.135523 0.263793 -0.242188
  H 6.927027 -0.482162 -1.633102
 20
 13.225209
  C 1.070923 0.112218 0.373413
  C 2.635049 0.072964 0.510359
  C 3.213314 0.512401 1.799510
  C 2.256239 1.190445 2.776944
  H 2.847755 1.491916 3.649386
  C 3.168534 -0.380656 -0.673784
  C 4.541928 -0.355386 -0.962430
  C 5.055714 -0.802167 -2.156083
  H 4.433721 -1.209721 -2.951681
  O 6.319974 -0.913177 -2.451833
  H 0.549415 0.544913 1.214857
  H 0.829776 -0.939245 0.268037
  H 0.940479 0.709024 -0.529606
  H 3.977435 1.262587 1.538518
  H 3.641221 -0.373397 2.267447
  H 1.513701 0.504126 3.165156
  H 1.835757 2.096578 2.352372
  H 2.524730 -0.798204 -1.433400
  H 5.195523 0.096446 -0.224412
  H 6.911335 -0.519002 -1.784648
 20
 26.497656
  C 1.091329 0.130825 0.325148
  C 2.729408 0.069094 0.571029
  C 3.183079 0.505194 1.888954
  C 2.198023 1.207070 2.821189
  H 2.732779 1.574151 3.693881
  C 3.245105 -0.454273 -0.589580
  C 4.591255 -0.311033 -0.982802
  C 5.005591 -0.778137 -2.204394
  H 4.317345 -1.222424 -2.913704
  O 6.234949 -0.917649 -2.601805
  H 0.562317 0.534646 1.166027
  H 0.954540 -0.937558 0.229647
  H 1.030201 0.678407 -0.595594
  H 3.999256 1.223391 1.695817
  H 3.612455 -0.347072 2.427287
  H 1.388787 0.555648 3.127223
  H 1.759754 2.065422 2.316028
  H 2.595789 -0.830751 -1.364960
  H 5.294468 0.147473 -0.283031
  H 6.903209 -0.581185 -1.957403
 20
 45.697267
  C 1.011669 0.121864 0.284626
  C 2.806191 0.022974 0.611757
  C 3.182210 0.501809 1.934332
  C 2.161323 1.231240 2.799264
  H 2.644723 1.682751 3.662902
  C 3.279869 -0.499903 -0.524227
  C 4.633361 -0.403256 -0.939920
  C 4.998364 -0.809428 -2.207736
  H 4.234884 -1.098836 -2.933718
  O 6.218442 -0.850081 -2.688593
  H 0.637522 0.550118 1.199903
  H 0.925740 -0.948623 0.196997
  H 1.039773 0.715593 -0.584738
  H 3.960626 1.242082 1.674334
  H 3.691399 -0.257395 2.541653
  H 1.379138 0.552921 3.131802
  H 1.671338 2.026280 2.237902
  H 2.597267 -0.839413 -1.283039
  H 5.397738 -0.106226 -0.231953
  H 6.906141 -0.514900 -2.092002
 20
 67.401243
  C 0.853925 0.082988 0.334859
  C 2.901537 0.061365 0.643603
  C 3.224596 0.539665 1.957945
  C 2.154773 1.252669 2.789074
  H 2.618651 1.638830 3.689302
  C 3.305840 -0.402745 -0.541644
  C 4.663814 -0.345089 -0.994706
  C 5.032845 -0.878151 -2.223637
  H 4.275287 -1.235097 -2.921309
  O 6.248958 -0.949485 -2.707918
  H 0.347193 0.457553 1.204893
  H 0.891208 -0.970102 0.165978
  H 0.999295 0.770654 -0.468766
  H 4.022929 1.285504 1.750143
  H 3.696484 -0.247718 2.564329
  H 1.383831 0.544388 3.057431
  H 1.724552 2.070534 2.235632
  H 2.619491 -0.848940 -1.253516
  H 5.406211 0.065999 -0.334732
  H 6.918700 -0.564344 -2.136733
 20
 80.433101
  C 0.837074 0.075884 0.291794
  C 3.043979 0.056704 0.710431
  C 3.244130 0.558736 2.035827
  C 2.108553 1.262876 2.770918
  H 2.491495 1.645024 3.717404
  C 3.382218 -0.432525 -0.465640
  C 4.708886 -0.383802 -1.009183
  C 4.977988 -0.860151 -2.254165
  H 4.201751 -1.237510 -2.913605
  O 6.164365 -0.921738 -2.819619
  H 0.339613 0.473918 1.152661
  H 0.907559 -0.988202 0.198401
  H 1.041678 0.730821 -0.528040
  H 4.020354 1.328333 1.889521
  H 3.644557 -0.226561 2.684287
  H 1.314031 0.558704 2.991474
  H 1.724684 2.096563 2.195698
  H 2.649888 -0.844674 -1.147663
  H 5.482892 0.033705 -0.384309
  H 6.874810 -0.574972 -2.251078
 20
 87.279515
  C 0.727335 0.037219 0.304182
  C 3.099333 0.039337 0.747509
  C 3.267469 0.544571 2.066308
  C 2.124420 1.321961 2.725894
  H 2.472490 1.722612 3.675058
  C 3.416112 -0.449059 -0.415579
  C 4.732886 -0.370855 -1.005686
  C 4.977686 -0.866560 -2.243767
  H 4.194920 -1.300869 -2.858639
  O 6.153320 -0.907144 -2.852567
  H 0.148344 0.427372 1.119801
  H 0.846795 -1.024144 0.232693
  H 0.994687 0.690597 -0.498330
  H 4.091446 1.271944 1.945948
  H 3.602039 -0.247964 2.746364
  H 1.293945 0.655477 2.926918
  H 1.796004 2.146210 2.101867
  H 2.673444 -0.891062 -1.072952
  H 5.512751 0.085866 -0.414265
  H 6.864316 -0.509132 -2.321921
 20
 89.188514
  C 0.652074 -0.017458 0.329345
  C 3.142249 0.016565 0.787577
  C 3.263715 0.487231 2.118319
  C 2.179504 1.409069 2.666556
  H 2.492585 1.803512 3.630245
  C 3.463747 -0.465231 -0.374166
  C 4.759546 -0.343709 -1.014794
  C 4.985951 -0.868735 -2.231351
  H 4.219677 -1.390771 -2.786042
  O 6.138784 -0.839678 -2.895384
  H 0.021060 0.369912 1.104089
  H 0.757381 -1.080059 0.240456
  H 0.918473 0.624665 -0.482776
  H 4.189599 1.088750 2.069876
  H 3.451519 -0.339840 2.815169
  H 1.261584 0.851894 2.809942
  H 1.992869 2.242747 1.992658
  H 2.726307 -0.979625 -0.979322
  H 5.538693 0.175875 -0.475064
  H 6.834425 -0.368738 -2.416499
 20
 90.444405
  C 0.689207 -0.041132 0.332405
  C 3.158185 -0.049340 0.835310
  C 3.216534 0.421860 2.164350
  C 2.217428 1.483184 2.608616
  H 2.490306 1.854534 3.591117
  C 3.494191 -0.541335 -0.316693
  C 4.735732 -0.318910 -1.016003
  C 4.960071 -0.860946 -2.226320
  H 4.225359 -1.475327 -2.730403
  O 6.069892 -0.743402 -2.938646
  H -0.000124 0.355831 1.047258
  H 0.796483 -1.103710 0.270744
  H 1.020759 0.589431 -0.465027
  H 4.225839 0.883330 2.183085
  H 3.263457 -0.405699 2.878266
  H 1.225518 1.052947 2.673125
  H 2.192075 2.316834 1.915033
  H 2.785286 -1.148725 -0.865689
  H 5.476991 0.301487 -0.536333
  H 6.746555 -0.194536 -2.495359
