 22
 0.000000
  C 0.972443 0.209477 0.575442
  C 2.410682 0.119723 0.349149
  H 3.079665 0.438966 1.141400
  C 2.953688 -0.352346 -0.825823
  C 4.345389 -0.425176 -1.009062
  C 5.045665 -0.867093 -2.109434
  C 4.619439 -1.387469 -3.405962
  C 3.151546 -1.532565 -3.770528
  C 3.000388 -2.097889 -5.181017
  H 6.127076 -0.827924 -2.011481
  H 0.727712 0.604040 1.556718
  H 0.508159 -0.772375 0.447731
  H 0.506769 0.828634 -0.196390
  H 2.284712 -0.667418 -1.608015
  H 4.943510 -0.088220 -0.170879
  H 5.119899 -2.360095 -3.528333
  H 5.121034 -0.770103 -4.166687
  H 2.658697 -0.559452 -3.733673
  H 2.657283 -2.209895 -3.071918
  H 3.461946 -1.443725 -5.917102
  H 1.949022 -2.199473 -5.437244
  H 3.460227 -3.080191 -5.261120
 22
 9.645001
  C 0.927237 0.194767 0.539529
  C 2.438554 0.128653 0.369972
  H 3.014573 0.470364 1.215244
  C 2.966513 -0.341731 -0.798577
  C 4.358889 -0.414999 -0.984574
  C 4.994549 -0.868007 -2.110777
  C 4.616950 -1.390349 -3.409884
  C 3.144927 -1.533802 -3.773235
  C 2.983764 -2.097428 -5.181539
  H 6.191333 -0.826091 -2.006597
  H 0.728407 0.592572 1.526583
  H 0.569577 -0.824179 0.414051
  H 0.567102 0.840577 -0.257424
  H 2.298882 -0.658181 -1.580657
  H 4.965995 -0.080986 -0.156562
  H 5.129066 -2.355689 -3.538801
  H 5.129845 -0.781922 -4.170024
  H 2.653074 -0.560356 -3.725363
  H 2.650640 -2.203907 -3.067181
  H 3.440048 -1.444495 -5.921843
  H 1.929283 -2.194386 -5.428280
  H 3.437227 -3.082192 -5.266166
 22
 37.125856
  C 0.930358 0.198833 0.613864
  C 2.412412 0.150486 0.384911
  H 3.026467 0.478092 1.209896
  C 2.926246 -0.308566 -0.787470
  C 4.314147 -0.386105 -0.999531
  C 4.914830 -0.866503 -2.126881
  C 4.601728 -1.394759 -3.416031
  C 3.133085 -1.522642 -3.830478
  C 3.017331 -2.121764 -5.226099
  H 6.422366 -0.868780 -1.967568
  H 0.752653 0.587857 1.609415
  H 0.555419 -0.819164 0.509276
  H 0.509361 0.848440 -0.146741
  H 2.245317 -0.629981 -1.562977
  H 4.938041 -0.061818 -0.178598
  H 5.097860 -2.371735 -3.520210
  H 5.151636 -0.813707 -4.174568
  H 2.665553 -0.536373 -3.820627
  H 2.613305 -2.164495 -3.119965
  H 3.485568 -1.482754 -5.969872
  H 1.968721 -2.233849 -5.494205
  H 3.481299 -3.103045 -5.273954
 22
 66.814750
  C 0.912645 0.205686 0.656535
  C 2.416912 0.161342 0.402780
  H 3.044543 0.486798 1.214570
  C 2.916259 -0.302466 -0.787659
  C 4.299649 -0.378966 -1.019958
  C 4.850684 -0.860415 -2.133557
  C 4.591248 -1.399667 -3.426003
  C 3.117130 -1.518006 -3.851230
  C 3.019646 -2.130448 -5.243968
  H 6.711179 -0.880511 -1.917741
  H 0.723491 0.591356 1.646184
  H 0.536632 -0.804831 0.531516
  H 0.472862 0.827886 -0.116624
  H 2.228049 -0.629891 -1.555452
  H 4.938542 -0.057306 -0.211209
  H 5.084519 -2.382756 -3.492762
  H 5.148564 -0.800925 -4.164987
  H 2.661973 -0.527082 -3.864722
  H 2.589197 -2.159007 -3.144497
  H 3.488995 -1.495463 -5.990738
  H 1.973760 -2.245095 -5.519478
  H 3.479978 -3.114168 -5.278285
 22
 81.716031
  C 0.907769 0.180310 0.542862
  C 2.440115 0.131846 0.349692
  H 3.045257 0.469574 1.179905
  C 2.948523 -0.338656 -0.827376
  C 4.351918 -0.409664 -1.026213
  C 4.931505 -0.869818 -2.127961
  C 4.566848 -1.377755 -3.371507
  C 3.082486 -1.507819 -3.754177
  C 2.952949 -2.086130 -5.150543
  H 6.932481 -0.826441 -1.929069
  H 0.682944 0.575643 1.529478
  H 0.548960 -0.835385 0.373709
  H 0.524077 0.789629 -0.274298
  H 2.247562 -0.664774 -1.594594
  H 4.987407 -0.084714 -0.203374
  H 5.088066 -2.345014 -3.498322
  H 5.115486 -0.794908 -4.134895
  H 2.583625 -0.536118 -3.748567
  H 2.569727 -2.175474 -3.060479
  H 3.430280 -1.456851 -5.890734
  H 1.903212 -2.182004 -5.403778
  H 3.417550 -3.060267 -5.224197
 22
 84.804849
  C 0.921944 0.261622 0.731825
  C 2.372609 0.163700 0.443778
  H 3.039266 0.457760 1.236732
  C 2.826252 -0.292894 -0.749118
  C 4.260790 -0.417770 -1.027041
  C 4.766029 -0.875055 -2.152636
  C 4.616347 -1.406419 -3.458680
  C 3.138039 -1.564548 -3.892489
  C 3.082698 -2.153975 -5.292599
  H 6.897707 -0.834926 -1.923388
  H 0.768705 0.645658 1.729994
  H 0.474865 -0.721568 0.634847
  H 0.458830 0.918951 0.004211
  H 2.131286 -0.584466 -1.516918
  H 4.907635 -0.113886 -0.217269
  H 5.123003 -2.371858 -3.557061
  H 5.129841 -0.779765 -4.195445
  H 2.640368 -0.595806 -3.878917
  H 2.622324 -2.228258 -3.200239
  H 3.548525 -1.494617 -6.020239
  H 2.043328 -2.293374 -5.579261
  H 3.577871 -3.120376 -5.337016
 22
 87.040713
  C 0.937631 0.344586 0.903788
  C 2.369579 0.164571 0.492601
  H 3.117736 0.442253 1.221839
  C 2.726010 -0.304990 -0.708588
  C 4.132502 -0.467254 -1.101876
  C 4.560011 -0.911554 -2.227247
  C 4.667634 -1.427151 -3.524235
  C 3.182664 -1.603902 -3.976135
  C 3.185639 -2.183017 -5.383467
  H 6.902552 -0.836640 -1.898906
  H 0.854512 0.748419 1.908348
  H 0.395432 -0.607050 0.878062
  H 0.408752 1.019452 0.225097
  H 1.991347 -0.578264 -1.447386
  H 4.821628 -0.160372 -0.321391
  H 5.157970 -2.404146 -3.550706
  H 5.161205 -0.737583 -4.218362
  H 2.680806 -0.628282 -3.967270
  H 2.664974 -2.281642 -3.278996
  H 3.662572 -1.502173 -6.092344
  H 2.150248 -2.338480 -5.700099
  H 3.700988 -3.144354 -5.417802
 22
 88.727007
  C 0.962482 0.395566 1.038971
  C 2.354578 0.194240 0.551473
  H 3.151677 0.452299 1.234836
  C 2.631929 -0.283989 -0.670893
  C 3.995748 -0.481366 -1.144415
  C 4.419029 -0.926620 -2.263525
  C 4.666348 -1.434989 -3.536140
  C 3.190705 -1.637698 -4.064338
  C 3.276649 -2.216738 -5.467849
  H 7.137872 -0.809092 -1.809997
  H 0.955707 0.805204 2.043837
  H 0.419981 -0.548462 1.044492
  H 0.420782 1.073630 0.381657
  H 1.843129 -0.544527 -1.360185
  H 4.753788 -0.198031 -0.416022
  H 5.167680 -2.403940 -3.531460
  H 5.176619 -0.733541 -4.197727
  H 2.675601 -0.678835 -4.086337
  H 2.656104 -2.323008 -3.408763
  H 3.778928 -1.534673 -6.147855
  H 2.265902 -2.382120 -5.833987
  H 3.800956 -3.168060 -5.474124
