 22
 0.000000
  C 0.922082 0.058704 0.307082
  C 2.390343 0.049927 0.027001
  H 3.026693 -0.001977 0.900595
  C 2.979089 0.111556 -1.171935
  C 2.342984 0.195855 -2.540696
  C 0.829114 0.210317 -2.733181
  C 0.496200 0.299343 -4.220394
  C 4.440862 0.122177 -1.216440
  C 5.224381 0.212170 -2.284921
  H 6.299102 0.212771 -2.204262
  H 0.724339 0.011427 1.376441
  H 0.429984 -0.797198 -0.148891
  H 0.467949 0.971851 -0.072900
  H 2.733005 -0.650939 -3.116798
  H 2.736631 1.103551 -3.011493
  H 0.385343 1.068845 -2.230456
  H 0.382266 -0.700239 -2.335172
  H 0.907845 1.208206 -4.654764
  H -0.581793 0.310037 -4.366540
  H 0.904581 -0.553137 -4.759538
  H 4.926732 0.047217 -0.249831
  H 4.869825 0.291259 -3.298869
 22
 -0.520160
  C 0.917777 0.074293 0.327852
  C 2.368273 -0.003437 -0.026527
  H 3.016582 -0.156885 0.828600
  C 2.971565 0.109920 -1.215682
  C 2.357984 0.270867 -2.585239
  C 0.842058 0.233804 -2.752339
  C 0.474073 0.261609 -4.232949
  C 4.434608 0.065891 -1.218671
  C 5.246187 0.233311 -2.256754
  H 6.315416 0.192397 -2.136060
  H 0.810004 0.237633 1.398081
  H 0.400644 -0.852781 0.080906
  H 0.426700 0.891223 -0.192036
  H 2.775786 -0.531692 -3.203068
  H 2.724734 1.214237 -3.003578
  H 0.384241 1.095720 -2.267653
  H 0.438171 -0.673938 -2.304584
  H 0.855907 1.164107 -4.706037
  H -0.606208 0.241288 -4.357892
  H 0.894043 -0.598785 -4.750069
  H 4.881435 -0.111344 -0.247347
  H 4.901443 0.419674 -3.258710
 22
 0.131781
  C 0.928013 0.108635 0.346802
  C 2.358208 -0.095877 -0.032593
  H 2.990507 -0.384639 0.799510
  C 2.963826 0.088425 -1.211722
  C 2.352197 0.305578 -2.575780
  C 0.838928 0.230540 -2.758287
  C 0.485728 0.239523 -4.242824
  C 4.426130 0.026154 -1.222971
  C 5.238366 0.279497 -2.243137
  H 6.307682 0.232987 -2.122680
  H 0.886146 0.483218 1.369230
  H 0.362508 -0.822535 0.313101
  H 0.455158 0.842043 -0.296055
  H 2.792322 -0.467539 -3.215375
  H 2.699635 1.269507 -2.961547
  H 0.351619 1.084001 -2.286762
  H 0.454878 -0.684489 -2.305790
  H 0.851110 1.147902 -4.717750
  H -0.592435 0.192462 -4.378674
  H 0.931445 -0.613873 -4.749913
  H 4.871779 -0.225356 -0.267467
  H 4.892219 0.549557 -3.225358
 22
 3.067025
  C 0.949507 0.147248 0.347224
  C 2.345391 -0.214929 -0.035973
  H 2.932155 -0.672117 0.752183
  C 2.955812 0.069258 -1.193449
  C 2.338718 0.314238 -2.553931
  C 0.829991 0.206894 -2.761003
  C 0.503748 0.218244 -4.251935
  C 4.417254 0.025960 -1.224419
  C 5.219177 0.343487 -2.235158
  H 6.289485 0.325483 -2.116495
  H 0.989523 0.674872 1.302791
  H 0.297655 -0.714767 0.472250
  H 0.554009 0.850409 -0.376823
  H 2.797661 -0.448441 -3.192908
  H 2.671664 1.285773 -2.932713
  H 0.309184 1.043425 -2.294813
  H 0.460799 -0.720608 -2.320795
  H 0.850443 1.141185 -4.712486
  H -0.569926 0.140382 -4.407488
  H 0.983497 -0.617079 -4.758043
  H 4.874430 -0.249944 -0.280528
  H 4.863723 0.646459 -3.204280
 22
 9.394008
  C 0.990467 0.239511 0.331386
  C 2.321081 -0.317280 -0.051131
  H 2.821336 -0.957118 0.664183
  C 2.946674 0.059279 -1.177261
  C 2.323855 0.308104 -2.538502
  C 0.822488 0.134587 -2.758547
  C 0.505979 0.179524 -4.250938
  C 4.405148 0.005762 -1.225884
  C 5.204394 0.425430 -2.204779
  H 6.274905 0.408456 -2.088029
  H 1.139241 0.842536 1.233141
  H 0.218094 -0.492944 0.541923
  H 0.743932 0.965812 -0.437403
  H 2.817409 -0.434724 -3.174270
  H 2.617795 1.293087 -2.915630
  H 0.249916 0.920983 -2.267903
  H 0.500931 -0.825659 -2.350990
  H 0.810698 1.132885 -4.678109
  H -0.561902 0.056680 -4.416896
  H 1.027873 -0.614694 -4.780830
  H 4.866135 -0.348512 -0.309326
  H 4.843991 0.823007 -3.137482
 22
 20.331251
  C 1.031752 0.283139 0.304101
  C 2.313381 -0.387829 -0.068776
  H 2.702425 -1.196421 0.528077
  C 2.941258 0.074963 -1.159595
  C 2.321401 0.281623 -2.529402
  C 0.817610 0.122557 -2.742911
  C 0.500209 0.149335 -4.235539
  C 4.397267 0.041055 -1.211769
  C 5.187643 0.500406 -2.174469
  H 6.260073 0.501840 -2.057149
  H 1.245254 0.929462 1.164430
  H 0.192403 -0.355286 0.556803
  H 0.906326 1.015224 -0.498025
  H 2.803252 -0.501904 -3.124014
  H 2.628633 1.239021 -2.957965
  H 0.248733 0.920074 -2.261104
  H 0.489286 -0.829500 -2.319480
  H 0.811343 1.094395 -4.675913
  H -0.567771 0.030573 -4.399278
  H 1.017074 -0.655822 -4.755391
  H 4.863671 -0.348086 -0.311071
  H 4.818020 0.907975 -3.098834
 22
 37.397871
  C 1.081413 0.349981 0.260488
  C 2.257135 -0.457650 -0.129580
  H 2.524693 -1.390921 0.334839
  C 2.930192 0.131969 -1.163663
  C 2.322009 0.309271 -2.543671
  C 0.827998 0.075509 -2.720027
  C 0.463319 0.088089 -4.199656
  C 4.381765 0.045045 -1.193331
  C 5.207688 0.515918 -2.130713
  H 6.273843 0.461594 -2.007173
  H 1.336755 0.969374 1.127602
  H 0.143252 -0.162751 0.452038
  H 1.227242 1.171268 -0.512644
  H 2.853324 -0.423466 -3.155815
  H 2.555826 1.303527 -2.945403
  H 0.247826 0.846008 -2.212739
  H 0.555643 -0.885466 -2.283875
  H 0.669381 1.063253 -4.635808
  H -0.595377 -0.128992 -4.332564
  H 1.035483 -0.655794 -4.743932
  H 4.818555 -0.352446 -0.282176
  H 4.863387 0.958662 -3.054061
 22
 61.934495
  C 1.160477 0.386649 0.241897
  C 2.214560 -0.558405 -0.154173
  H 2.390848 -1.537071 0.247181
  C 2.915538 0.077683 -1.165497
  C 2.323269 0.245113 -2.561655
  C 0.821700 0.024241 -2.725229
  C 0.421574 0.095951 -4.195225
  C 4.362811 0.073738 -1.150995
  C 5.183948 0.594864 -2.068273
  H 6.252618 0.583596 -1.932688
  H 1.450552 1.154071 0.974046
  H 0.171422 0.010110 0.464661
  H 1.562962 1.123647 -0.563520
  H 2.837142 -0.511823 -3.160261
  H 2.574316 1.227192 -2.975400
  H 0.253637 0.764361 -2.161186
  H 0.558751 -0.958075 -2.324712
  H 0.698086 1.057770 -4.622327
  H -0.653115 -0.031477 -4.303299
  H 0.915830 -0.687109 -4.766982
  H 4.796767 -0.354111 -0.252381
  H 4.829278 1.073450 -2.964634
 22
 79.996850
  C 1.180136 0.306433 0.294296
  C 2.166105 -0.581910 -0.170212
  H 2.348771 -1.592726 0.160421
  C 2.886787 0.152205 -1.167529
  C 2.311037 0.267243 -2.588886
  C 0.805910 0.068424 -2.734253
  C 0.395262 0.084184 -4.202570
  C 4.351235 0.116166 -1.121082
  C 5.197932 0.599211 -2.024414
  H 6.262910 0.566708 -1.867503
  H 1.473543 1.133707 0.927843
  H 0.193067 -0.061018 0.587621
  H 1.862917 1.113061 -0.712916
  H 2.812177 -0.508762 -3.178627
  H 2.585904 1.231586 -3.023575
  H 0.265003 0.855533 -2.203962
  H 0.521899 -0.885734 -2.286089
  H 0.669248 1.029349 -4.666866
  H -0.680202 -0.045802 -4.298990
  H 0.886674 -0.719016 -4.747381
  H 4.752149 -0.301633 -0.203670
  H 4.872620 1.056750 -2.942554
 22
 62.479353
  C 1.177985 0.221755 0.382956
  C 2.094198 -0.599181 -0.178823
  H 2.265871 -1.641091 0.056364
  C 2.861924 0.213753 -1.184968
  C 2.307913 0.277210 -2.637244
  C 0.798512 0.124684 -2.751278
  C 0.366563 0.078498 -4.211750
  C 4.338486 0.195375 -1.081584
  C 5.202509 0.624555 -1.982554
  H 6.263725 0.576738 -1.808618
  H 1.480510 1.098633 0.931420
  H 0.202926 -0.129896 0.745440
  H 2.133977 1.073293 -0.842834
  H 2.775306 -0.538493 -3.206328
  H 2.617552 1.222394 -3.084982
  H 0.283887 0.952876 -2.248072
  H 0.489259 -0.803108 -2.265210
  H 0.645573 0.994176 -4.725734
  H -0.709491 -0.048498 -4.285196
  H 0.837326 -0.761448 -4.721087
  H 4.710760 -0.202242 -0.140403
  H 4.897392 1.073298 -2.910616
 22
 37.291315
  C 1.155415 0.094510 0.467594
  C 2.064984 -0.571527 -0.248949
  H 2.303717 -1.617391 -0.115860
  C 2.845229 0.331117 -1.176863
  C 2.303648 0.267564 -2.630473
  C 0.786140 0.187007 -2.757713
  C 0.376960 0.034462 -4.220214
  C 4.324367 0.198821 -1.091536
  C 5.212523 0.632370 -1.971532
  H 6.269677 0.549437 -1.786295
  H 1.390069 1.025891 0.953915
  H 0.290032 -0.386339 0.918668
  H 2.263633 1.221237 -0.853786
  H 2.757680 -0.581171 -3.159343
  H 2.670534 1.144898 -3.167724
  H 0.362914 1.128277 -2.393576
  H 0.394727 -0.636947 -2.161543
  H 0.728406 0.890577 -4.795724
  H -0.705472 -0.003907 -4.314969
  H 0.809094 -0.861795 -4.655235
  H 4.676914 -0.199123 -0.145559
  H 4.935003 1.079862 -2.910954
 22
 21.461686
  C 1.164870 0.061805 0.511822
  C 2.048528 -0.546436 -0.267006
  H 2.258467 -1.604275 -0.206869
  C 2.836728 0.335955 -1.200971
  C 2.327935 0.263039 -2.660063
  C 0.809744 0.181377 -2.779189
  C 0.375590 0.066550 -4.235438
  C 4.317464 0.258535 -1.059464
  C 5.210680 0.613615 -1.956717
  H 6.266435 0.547411 -1.752410
  H 1.332668 1.050432 0.908412
  H 0.363983 -0.448801 1.032785
  H 2.371554 1.287189 -0.880085
  H 2.762640 -0.615270 -3.148158
  H 2.683922 1.149630 -3.185584
  H 0.352252 1.066634 -2.330512
  H 0.447462 -0.688293 -2.227433
  H 0.735452 0.915148 -4.812647
  H -0.708882 0.034079 -4.308696
  H 0.772799 -0.843713 -4.680191
  H 4.652253 -0.102125 -0.094097
  H 4.942479 0.998212 -2.925371
 22
 9.864237
  C 1.157236 -0.057077 0.540785
  C 2.084615 -0.523680 -0.278330
  H 2.377544 -1.564313 -0.276967
  C 2.825554 0.418989 -1.186139
  C 2.327599 0.286540 -2.640079
  C 0.807706 0.271959 -2.773049
  C 0.383489 0.091701 -4.225929
  C 4.312072 0.294405 -1.051907
  C 5.212379 0.535680 -1.984075
  H 6.265497 0.425711 -1.786922
  H 1.095013 0.985533 0.807801
  H 0.474494 -0.697129 1.080842
  H 2.454027 1.396906 -0.845389
  H 2.734242 -0.629115 -3.078045
  H 2.719586 1.130338 -3.210795
  H 0.398356 1.210179 -2.390679
  H 0.392813 -0.538711 -2.171763
  H 0.765344 0.904353 -4.840649
  H -0.700799 0.079541 -4.308599
  H 0.767781 -0.845715 -4.622405
  H 4.639842 -0.016909 -0.066890
  H 4.953498 0.869717 -2.973771
 22
 4.483481
  C 1.132131 -0.148359 0.538323
  C 2.131907 -0.487068 -0.252730
  H 2.536331 -1.490215 -0.235475
  C 2.802282 0.484295 -1.184634
  C 2.328287 0.274508 -2.631908
  C 0.811131 0.336892 -2.784709
  C 0.390991 0.122733 -4.233977
  C 4.293437 0.397190 -1.024509
  C 5.203961 0.426172 -1.980403
  H 6.254864 0.359697 -1.752560
  H 0.774772 0.865921 0.610707
  H 0.637652 -0.865986 1.172701
  H 2.464310 1.479696 -0.866966
  H 2.689279 -0.692122 -2.991301
  H 2.771307 1.053985 -3.255241
  H 0.452100 1.311009 -2.444277
  H 0.346487 -0.425242 -2.156535
  H 0.820561 0.889705 -4.875257
  H -0.691577 0.163743 -4.328505
  H 0.729258 -0.848237 -4.589566
  H 4.611931 0.301752 0.007396
  H 4.956487 0.518834 -3.023528
 22
 4.153573
  C 1.121816 -0.307058 0.465782
  C 2.217006 -0.521154 -0.236421
  H 2.758018 -1.454515 -0.153141
  C 2.804475 0.504814 -1.170053
  C 2.316899 0.291087 -2.609710
  C 0.802557 0.405601 -2.758271
  C 0.369441 0.189141 -4.203390
  C 4.302326 0.474586 -1.037502
  C 5.193695 0.361736 -2.003816
  H 6.249363 0.346273 -1.789460
  H 0.596546 0.633752 0.402191
  H 0.689156 -1.029414 1.137725
  H 2.453292 1.488510 -0.824414
  H 2.641495 -0.693172 -2.954381
  H 2.784957 1.045407 -3.246169
  H 0.481920 1.397432 -2.430827
  H 0.312674 -0.331214 -2.119300
  H 0.799413 0.950184 -4.851243
  H -0.713483 0.237570 -4.289820
  H 0.697755 -0.785728 -4.557316
  H 4.642044 0.540008 -0.010039
  H 4.926519 0.285060 -3.043381
