 16
 0.000000
  C 1.000562 0.133230 0.383976
  C 2.465861 0.136013 0.390740
  C 3.197959 0.609473 1.567736
  H 2.531388 0.928569 2.361880
  C 3.120948 -0.324565 -0.755105
  C 4.510980 -0.393611 -0.928621
  C 5.058717 -0.855926 -2.081848
  H 4.457373 -1.188775 -2.911835
  H 6.125530 -0.908580 -2.213648
  H 0.576340 0.505926 1.310646
  H 0.625606 -0.875561 0.193882
  H 0.625542 0.729594 -0.451518
  H 3.860060 1.435865 1.299636
  H 3.860568 -0.172059 1.946241
  H 2.498583 -0.654972 -1.576505
  H 5.162209 -0.072575 -0.129161
 16
 0.468278
  C 1.008055 0.108185 0.390194
  C 2.472776 0.127638 0.395518
  C 3.199270 0.639378 1.559011
  H 2.528544 0.994568 2.334226
  C 3.120005 -0.331459 -0.754852
  C 4.511155 -0.435919 -0.921295
  C 5.065514 -0.844216 -2.094636
  H 4.444715 -1.100071 -2.934453
  H 6.130044 -0.921805 -2.220101
  H 0.577984 0.468442 1.318442
  H 0.637607 -0.899045 0.191840
  H 0.621832 0.707784 -0.436028
  H 3.868564 1.451793 1.266395
  H 3.841712 -0.140346 1.974468
  H 2.474556 -0.604403 -1.584428
  H 5.148862 -0.190870 -0.083846
 16
 0.974865
  C 1.009311 0.069205 0.403690
  C 2.475214 0.120762 0.397224
  C 3.186537 0.683519 1.547431
  H 2.507288 1.079683 2.297225
  C 3.122881 -0.332501 -0.755286
  C 4.510629 -0.485165 -0.914751
  C 5.064360 -0.828345 -2.107352
  H 4.452996 -1.000961 -2.981739
  H 6.122483 -0.932508 -2.221015
  H 0.585115 0.416714 1.339258
  H 0.658550 -0.943588 0.203616
  H 0.610118 0.680944 -0.407662
  H 3.881266 1.452964 1.238058
  H 3.811233 -0.087451 2.010984
  H 2.461951 -0.521188 -1.597335
  H 5.146296 -0.342464 -0.051713
 16
 2.327197
  C 1.004060 0.040306 0.408026
  C 2.461673 0.103392 0.395954
  C 3.189732 0.683097 1.527553
  H 2.531748 1.119186 2.264168
  C 3.115040 -0.319046 -0.747900
  C 4.499055 -0.488729 -0.897398
  C 5.057780 -0.808980 -2.095482
  H 4.442974 -0.950273 -2.974808
  H 6.113437 -0.931326 -2.210246
  H 0.560374 0.367741 1.355176
  H 0.656684 -0.968861 0.194840
  H 0.599035 0.671035 -0.383229
  H 3.894266 1.439523 1.173712
  H 3.790346 -0.086237 2.049132
  H 2.468166 -0.457760 -1.612945
  H 5.155537 -0.379756 -0.036472
 16
 5.373791
  C 1.045960 -0.002023 0.410824
  C 2.498423 0.128905 0.402983
  C 3.142721 0.743866 1.561463
  H 2.430286 1.132675 2.277781
  C 3.139050 -0.277165 -0.771201
  C 4.505409 -0.526137 -0.924730
  C 5.048908 -0.831830 -2.132391
  H 4.449975 -0.882616 -3.027461
  H 6.113409 -1.005883 -2.242125
  H 0.600419 0.272364 1.367551
  H 0.736152 -1.010416 0.150798
  H 0.606082 0.652076 -0.346693
  H 3.835164 1.534685 1.261466
  H 3.778751 0.002188 2.051048
  H 2.404433 -0.350414 -1.574078
  H 5.123075 -0.538663 -0.034254
 16
 9.022728
  C 1.054448 0.003643 0.390039
  C 2.537938 0.131048 0.407913
  C 3.113935 0.751435 1.609679
  H 2.359211 1.107779 2.298396
  C 3.168970 -0.311530 -0.743660
  C 4.528607 -0.558653 -0.941150
  C 5.035520 -0.813909 -2.178463
  H 4.399660 -0.903953 -3.021171
  H 6.099924 -0.999797 -2.318682
  H 0.599551 0.324328 1.326412
  H 0.750551 -1.019929 0.161414
  H 0.643724 0.632424 -0.396208
  H 3.784837 1.555470 1.335420
  H 3.737594 0.011280 2.109808
  H 2.371617 -0.308607 -1.502583
  H 5.180608 -0.546113 -0.071226
 16
 8.802187
  C 1.059626 -0.028504 0.405843
  C 2.530181 0.104313 0.432098
  C 3.098738 0.781859 1.599422
  H 2.318989 1.158409 2.257898
  C 3.177948 -0.319634 -0.724884
  C 4.520104 -0.625464 -0.936032
  C 5.027945 -0.814822 -2.180647
  H 4.412719 -0.723509 -3.060766
  H 6.081965 -0.994067 -2.321566
  H 0.609689 0.294006 1.342995
  H 0.765265 -1.054613 0.222134
  H 0.625510 0.615639 -0.364327
  H 3.753999 1.591292 1.276200
  H 3.705060 0.065348 2.159301
  H 2.426453 -0.248809 -1.533612
  H 5.143711 -0.731188 -0.065468
 16
 9.063635
  C 1.040455 -0.065382 0.434011
  C 2.500998 0.110820 0.428166
  C 3.084174 0.822241 1.565241
  H 2.335210 1.294617 2.186393
  C 3.137760 -0.341331 -0.729682
  C 4.480820 -0.696877 -0.916249
  C 5.035420 -0.764521 -2.152146
  H 4.473011 -0.497867 -3.031770
  H 6.072281 -1.010536 -2.279439
  H 0.621199 0.143628 1.418092
  H 0.792785 -1.086087 0.165286
  H 0.566897 0.603352 -0.286795
  H 3.788028 1.587723 1.201397
  H 3.717138 0.143717 2.132342
  H 2.426126 -0.206661 -1.542273
  H 5.060322 -0.942410 -0.036643
 16
 10.788036
  C 1.057837 -0.078712 0.437846
  C 2.504940 0.146772 0.422605
  C 3.062645 0.857514 1.574248
  H 2.298112 1.236285 2.239547
  C 3.126925 -0.320239 -0.734839
  C 4.454663 -0.714299 -0.928621
  C 5.033822 -0.761448 -2.153786
  H 4.487019 -0.497765 -3.044204
  H 6.066430 -1.037958 -2.272723
  H 0.628648 0.131655 1.413638
  H 0.811142 -1.107542 0.151029
  H 0.560888 0.560903 -0.282200
  H 3.713587 1.668929 1.254582
  H 3.730228 0.177055 2.119285
  H 2.440835 -0.096708 -1.549966
  H 5.018377 -1.029681 -0.057169
 16
 13.984942
  C 1.013407 -0.111740 0.467689
  C 2.466694 0.148564 0.397056
  C 3.075066 0.881303 1.503379
  H 2.336602 1.241022 2.213605
  C 3.101466 -0.356898 -0.722902
  C 4.414748 -0.798658 -0.911374
  C 5.055746 -0.704235 -2.103313
  H 4.564063 -0.302750 -2.975962
  H 6.082566 -0.992125 -2.203863
  H 0.618973 0.116136 1.455599
  H 0.791791 -1.146577 0.217071
  H 0.477730 0.507500 -0.252379
  H 3.678355 1.716696 1.135559
  H 3.779952 0.223560 2.027353
  H 2.501328 0.044451 -1.551974
  H 4.903688 -1.274944 -0.074449
 16
 21.556313
  C 1.005496 -0.146409 0.495463
  C 2.454894 0.130145 0.395840
  C 3.045008 0.948895 1.450591
  H 2.299695 1.439603 2.056921
  C 3.111465 -0.433400 -0.689003
  C 4.384897 -0.930701 -0.954508
  C 5.079344 -0.627306 -2.075895
  H 4.680353 0.038699 -2.827562
  H 6.068491 -1.002008 -2.227618
  H 0.634348 0.125659 1.487867
  H 0.810510 -1.202935 0.292356
  H 0.431669 0.422530 -0.218800
  H 3.736376 1.689657 1.030745
  H 3.672477 0.301304 2.080871
  H 2.503005 0.111599 -1.428389
  H 4.799227 -1.604469 -0.226421
 16
 36.635878
  C 1.031602 -0.145659 0.425802
  C 2.493063 0.193845 0.389661
  C 2.992696 1.012561 1.520553
  H 2.190642 1.360788 2.162434
  C 3.194724 -0.382769 -0.621420
  C 4.407549 -0.942876 -0.967322
  C 5.049512 -0.690604 -2.136288
  H 4.630747 -0.043958 -2.885826
  H 5.993628 -1.149843 -2.359330
  H 0.630732 0.075703 1.410854
  H 0.881980 -1.206538 0.198830
  H 0.457488 0.414165 -0.295252
  H 3.585030 1.853619 1.178697
  H 3.682942 0.393190 2.105492
  H 2.492758 0.274029 -1.215989
  H 4.831711 -1.658980 -0.271124
