 28
 0.000000
  C 0.906142 0.048847 0.273355
  C 2.397568 0.061287 0.086086
  C 3.242093 -0.010918 1.351011
  C 2.524527 -0.088838 2.695702
  H 3.246500 -0.134901 3.502969
  C 2.990653 0.128467 -1.123506
  C 2.348207 0.205170 -2.495240
  C 0.836996 0.218060 -2.714813
  C 0.523871 0.301078 -4.206677
  C 4.452244 0.133231 -1.214392
  C 5.189004 0.194517 -2.318584
  H 6.266339 0.193725 -2.309742
  H 0.614711 -0.004728 1.316466
  H 0.460465 -0.817766 -0.208681
  H 0.458857 0.958878 -0.118230
  H 3.887982 0.872312 1.381810
  H 3.889135 -0.890967 1.280322
  H 1.897246 -0.977785 2.747326
  H 1.896152 0.787513 2.849121
  H 2.738862 -0.643763 -3.067267
  H 2.739611 1.111992 -2.969583
  H 0.383402 1.079229 -2.225798
  H 0.382612 -0.691528 -2.324084
  H 0.938276 1.208921 -4.640836
  H -0.552758 0.310321 -4.364021
  H 0.937459 -0.553476 -4.738727
  H 4.996327 0.081349 -0.283927
  H 4.805110 0.250590 -3.324268
 28
 5.316098
  C 0.918773 0.074221 0.280235
  C 2.375782 0.069024 0.088401
  C 3.245101 0.013807 1.360968
  C 2.499714 -0.094369 2.693596
  H 3.231591 -0.125239 3.500300
  C 2.982682 0.130480 -1.124889
  C 2.332301 0.203809 -2.489452
  C 0.821415 0.237040 -2.702152
  C 0.518054 0.311091 -4.196891
  C 4.446402 0.116387 -1.229726
  C 5.183092 0.167588 -2.336488
  H 6.258153 0.158317 -2.272106
  H 0.603959 -0.025095 1.294673
  H 0.752548 -0.828049 -0.268160
  H 0.413333 0.915528 -0.161919
  H 3.861384 0.918103 1.395489
  H 3.916997 -0.846503 1.286141
  H 1.905751 -1.004344 2.749095
  H 1.854396 0.764276 2.865123
  H 2.714736 -0.655171 -3.053194
  H 2.737643 1.101574 -2.969579
  H 0.382270 1.110851 -2.219422
  H 0.348455 -0.659926 -2.301611
  H 0.955603 1.206571 -4.633999
  H -0.556170 0.337788 -4.366499
  H 0.924464 -0.555429 -4.715045
  H 4.990842 0.065815 -0.301904
  H 4.783424 0.222469 -3.333339
 28
 17.156816
  C 0.912102 0.066749 0.271033
  C 2.355936 0.070302 0.079883
  C 3.243866 0.031961 1.367615
  C 2.513914 -0.095191 2.693303
  H 3.242547 -0.107836 3.490575
  C 2.968454 0.129613 -1.118189
  C 2.321164 0.197249 -2.489394
  C 0.812128 0.268728 -2.703554
  C 0.509816 0.323362 -4.198585
  C 4.437019 0.111115 -1.213903
  C 5.180853 0.148490 -2.318814
  H 6.250761 0.134095 -2.250872
  H 0.556842 -0.084129 1.298674
  H 0.989503 -0.833719 -0.297491
  H 0.365701 0.853256 -0.208581
  H 3.829082 0.956600 1.392753
  H 3.935639 -0.809660 1.287077
  H 1.945479 -1.022110 2.750161
  H 1.848365 0.749019 2.866974
  H 2.683216 -0.677571 -3.039870
  H 2.746226 1.078188 -2.979033
  H 0.402094 1.165164 -2.239113
  H 0.309621 -0.602941 -2.284596
  H 0.974904 1.195859 -4.653343
  H -0.562779 0.380241 -4.367784
  H 0.888629 -0.565412 -4.700049
  H 4.974305 0.069436 -0.284270
  H 4.786345 0.193476 -3.312833
 28
 31.045682
  C 0.892958 0.079330 0.300963
  C 2.345784 0.079406 0.082500
  C 3.246264 0.036350 1.371612
  C 2.507936 -0.112437 2.710700
  H 3.242221 -0.124584 3.516375
  C 2.964722 0.138403 -1.120310
  C 2.319500 0.198295 -2.495614
  C 0.810835 0.290096 -2.714280
  C 0.513924 0.319599 -4.213475
  C 4.425873 0.110409 -1.216514
  C 5.164381 0.136824 -2.324058
  H 6.237297 0.131723 -2.265558
  H 0.553703 -0.084895 1.290903
  H 1.166615 -0.801890 -0.254645
  H 0.311907 0.817218 -0.208377
  H 3.820728 0.973055 1.395087
  H 3.953359 -0.799628 1.279435
  H 1.949493 -1.047338 2.758272
  H 1.833430 0.723476 2.891752
  H 2.671840 -0.691499 -3.034667
  H 2.760805 1.065964 -2.999610
  H 0.415029 1.206053 -2.270390
  H 0.291897 -0.565029 -2.278571
  H 0.995785 1.174561 -4.684483
  H -0.557985 0.391582 -4.387409
  H 0.879145 -0.585836 -4.695586
  H 4.972210 0.077759 -0.282355
  H 4.763940 0.176707 -3.318207
 28
 43.338030
  C 0.895348 0.112861 0.309241
  C 2.340228 0.079203 0.073801
  C 3.224032 0.025163 1.362809
  C 2.497619 -0.125228 2.685524
  H 3.234380 -0.141680 3.483719
  C 2.977589 0.140946 -1.125559
  C 2.333653 0.200870 -2.500881
  C 0.816705 0.286168 -2.703854
  C 0.497249 0.313805 -4.204693
  C 4.433917 0.118466 -1.212226
  C 5.176113 0.137696 -2.318525
  H 6.250553 0.123456 -2.252696
  H 0.556338 -0.042711 1.310699
  H 1.298451 -0.768172 -0.208181
  H 0.291110 0.811750 -0.239357
  H 3.792552 0.952819 1.391317
  H 3.923831 -0.804833 1.271781
  H 1.935645 -1.059949 2.733680
  H 1.824275 0.712363 2.874052
  H 2.689837 -0.695066 -3.047974
  H 2.771327 1.074766 -3.011949
  H 0.420620 1.206453 -2.252439
  H 0.307481 -0.573995 -2.259422
  H 0.969096 1.171662 -4.682245
  H -0.578710 0.380860 -4.365384
  H 0.860813 -0.591420 -4.692568
  H 4.982244 0.089758 -0.269241
  H 4.776992 0.161862 -3.322758
 28
 51.904378
  C 0.876469 0.144788 0.323536
  C 2.328447 0.079728 0.068227
  C 3.220055 0.015141 1.351323
  C 2.504113 -0.140502 2.685135
  H 3.258586 -0.164450 3.483717
  C 2.970974 0.147002 -1.136166
  C 2.327003 0.207196 -2.515234
  C 0.815797 0.288252 -2.716690
  C 0.496439 0.307977 -4.203632
  C 4.431962 0.125150 -1.209627
  C 5.189118 0.135746 -2.308208
  H 6.260953 0.117753 -2.229059
  H 0.543703 0.005967 1.321462
  H 1.389029 -0.746876 -0.151221
  H 0.253772 0.786697 -0.260848
  H 3.792272 0.944424 1.378607
  H 3.922014 -0.816559 1.252010
  H 1.938295 -1.074310 2.734126
  H 1.836071 0.699103 2.886460
  H 2.677194 -0.676499 -3.055061
  H 2.758658 1.071172 -3.024764
  H 0.423752 1.199265 -2.275893
  H 0.311952 -0.566969 -2.269068
  H 0.964997 1.161885 -4.683848
  H -0.576027 0.372085 -4.361885
  H 0.859762 -0.595116 -4.685088
  H 4.965502 0.102324 -0.272487
  H 4.807371 0.147785 -3.303251
 28
 58.127515
  C 0.890257 0.181189 0.327934
  C 2.342459 0.077696 0.068788
  C 3.217672 0.001289 1.358491
  C 2.476847 -0.156010 2.690982
  H 3.219752 -0.193073 3.500480
  C 2.994767 0.148565 -1.142274
  C 2.343105 0.209020 -2.524302
  C 0.815404 0.286698 -2.712927
  C 0.474592 0.298126 -4.204783
  C 4.450532 0.126400 -1.216031
  C 5.205905 0.136289 -2.318067
  H 6.282143 0.133827 -2.239981
  H 0.550792 0.060243 1.335707
  H 1.485675 -0.735560 -0.101715
  H 0.252862 0.777174 -0.303923
  H 3.795666 0.924176 1.395854
  H 3.914042 -0.833022 1.263396
  H 1.903482 -1.077317 2.726427
  H 1.818890 0.683091 2.888493
  H 2.688979 -0.672906 -3.065168
  H 2.773133 1.074984 -3.041238
  H 0.423733 1.204271 -2.270054
  H 0.316878 -0.571633 -2.252255
  H 0.937179 1.154023 -4.697173
  H -0.605417 0.359218 -4.351510
  H 0.834917 -0.608312 -4.687210
  H 4.987246 0.114323 -0.281928
  H 4.816728 0.149530 -3.321849
 28
 62.635782
  C 0.875674 0.227727 0.332618
  C 2.328398 0.082082 0.069600
  C 3.215456 -0.011757 1.356268
  C 2.495406 -0.174974 2.686718
  H 3.240950 -0.231377 3.476107
  C 2.985869 0.158576 -1.150214
  C 2.338295 0.216063 -2.528193
  C 0.827128 0.285931 -2.715155
  C 0.489559 0.284463 -4.200860
  C 4.430341 0.136864 -1.216304
  C 5.193202 0.140646 -2.315431
  H 6.265603 0.138003 -2.231610
  H 0.530465 0.126461 1.333244
  H 1.533776 -0.723718 -0.054493
  H 0.236063 0.762033 -0.333362
  H 3.798050 0.897560 1.397055
  H 3.898879 -0.845387 1.245930
  H 1.910654 -1.089974 2.718301
  H 1.850948 0.672126 2.905187
  H 2.687150 -0.668750 -3.069677
  H 2.763391 1.079201 -3.044447
  H 0.433157 1.203037 -2.280495
  H 0.336032 -0.568276 -2.249234
  H 0.946633 1.134418 -4.696152
  H -0.583245 0.339673 -4.347786
  H 0.853547 -0.622451 -4.675853
  H 4.966012 0.130208 -0.271441
  H 4.813448 0.146045 -3.311739
 28
 66.123716
  C 0.881558 0.277105 0.340497
  C 2.330461 0.083388 0.072887
  C 3.222661 -0.029048 1.368904
  C 2.484735 -0.194238 2.689134
  H 3.225238 -0.274149 3.490578
  C 2.990808 0.162853 -1.154152
  C 2.343694 0.217375 -2.526426
  C 0.835193 0.281059 -2.711141
  C 0.495717 0.267295 -4.200245
  C 4.426867 0.141863 -1.224858
  C 5.186812 0.147311 -2.328882
  H 6.264446 0.161049 -2.248480
  H 0.530086 0.192876 1.347270
  H 1.582271 -0.717741 -0.016280
  H 0.230285 0.766935 -0.362796
  H 3.825068 0.883204 1.422410
  H 3.901277 -0.880635 1.251039
  H 1.877029 -1.105526 2.703094
  H 1.850341 0.667781 2.910671
  H 2.697285 -0.676374 -3.071951
  H 2.767886 1.086641 -3.047166
  H 0.439418 1.200120 -2.283123
  H 0.348777 -0.572487 -2.237901
  H 0.950795 1.117458 -4.703459
  H -0.582376 0.318069 -4.347503
  H 0.862481 -0.642265 -4.669141
  H 4.959759 0.146524 -0.293456
  H 4.799100 0.157268 -3.333644
 28
 69.033214
  C 0.882455 0.334331 0.345758
  C 2.326676 0.090110 0.074549
  C 3.224251 -0.041895 1.364276
  C 2.490619 -0.217689 2.693581
  H 3.229627 -0.320865 3.483939
  C 2.990662 0.178383 -1.157453
  C 2.346413 0.227412 -2.527261
  C 0.831888 0.275934 -2.717413
  C 0.496455 0.247546 -4.202422
  C 4.426588 0.159647 -1.223412
  C 5.189386 0.156887 -2.324548
  H 6.267466 0.151378 -2.240693
  H 0.521716 0.250549 1.347187
  H 1.619056 -0.708047 0.009075
  H 0.235257 0.773956 -0.373668
  H 3.831040 0.853929 1.425174
  H 3.886296 -0.891457 1.228980
  H 1.871357 -1.115269 2.698467
  H 1.873293 0.647276 2.932790
  H 2.707760 -0.657462 -3.067390
  H 2.763695 1.096457 -3.046002
  H 0.426221 1.192973 -2.299586
  H 0.352191 -0.577660 -2.240035
  H 0.943808 1.096303 -4.709276
  H -0.577197 0.287568 -4.351016
  H 0.873467 -0.664728 -4.664369
  H 4.961947 0.160236 -0.282402
  H 4.803602 0.149559 -3.334947
 28
 71.045688
  C 0.900884 0.394655 0.356538
  C 2.333341 0.086976 0.082824
  C 3.228831 -0.060672 1.373683
  C 2.479349 -0.237489 2.683682
  H 3.206994 -0.363621 3.484163
  C 3.000415 0.182374 -1.156584
  C 2.349958 0.229285 -2.527657
  C 0.838304 0.267196 -2.711914
  C 0.496403 0.224591 -4.198967
  C 4.429049 0.160733 -1.225645
  C 5.189751 0.163337 -2.330869
  H 6.262340 0.173467 -2.252667
  H 0.530316 0.304046 1.348085
  H 1.657047 -0.712632 0.030496
  H 0.240590 0.803013 -0.393942
  H 3.851452 0.834312 1.447552
  H 3.886011 -0.925782 1.232808
  H 1.843054 -1.122607 2.668742
  H 1.874803 0.634917 2.922745
  H 2.715268 -0.658225 -3.072795
  H 2.762149 1.103686 -3.051392
  H 0.427835 1.188261 -2.298416
  H 0.366486 -0.586490 -2.224956
  H 0.937818 1.073606 -4.716300
  H -0.582337 0.257058 -4.344544
  H 0.875531 -0.686077 -4.653844
  H 4.963689 0.167218 -0.294208
  H 4.805491 0.164779 -3.327910
 28
 72.466097
  C 0.909019 0.460152 0.353584
  C 2.330114 0.084795 0.080991
  C 3.231032 -0.078615 1.371057
  C 2.479642 -0.260147 2.687154
  H 3.212320 -0.409429 3.491563
  C 3.003126 0.184728 -1.165058
  C 2.349386 0.229627 -2.532755
  C 0.841359 0.259769 -2.711834
  C 0.494805 0.200351 -4.199275
  C 4.431328 0.156035 -1.227262
  C 5.197695 0.167191 -2.327400
  H 6.280409 0.199154 -2.241665
  H 0.519417 0.352510 1.343629
  H 1.680238 -0.716796 0.032703
  H 0.257636 0.836040 -0.404546
  H 3.860750 0.803401 1.451166
  H 3.872665 -0.944473 1.220370
  H 1.828635 -1.133488 2.662156
  H 1.886641 0.621953 2.938926
  H 2.709459 -0.645813 -3.071315
  H 2.754032 1.096881 -3.057093
  H 0.426903 1.189191 -2.303636
  H 0.374884 -0.594537 -2.211505
  H 0.930896 1.044769 -4.726782
  H -0.582725 0.226895 -4.342135
  H 0.875241 -0.712209 -4.645958
  H 4.970316 0.167785 -0.277610
  H 4.814114 0.186591 -3.339513
 28
 72.394022
  C 0.937588 0.576553 0.369472
  C 2.324397 0.095674 0.085206
  C 3.232151 -0.103867 1.373228
  C 2.482165 -0.302881 2.681069
  H 3.206203 -0.490267 3.473957
  C 3.007172 0.218281 -1.164178
  C 2.356845 0.254148 -2.531421
  C 0.838113 0.243578 -2.713571
  C 0.492470 0.152324 -4.198936
  C 4.427272 0.190836 -1.219841
  C 5.200110 0.188755 -2.320192
  H 6.274341 0.173039 -2.231762
  H 0.520700 0.419418 1.338006
  H 1.690317 -0.708532 0.026437
  H 0.284378 0.934667 -0.395708
  H 3.876134 0.768802 1.470436
  H 3.858929 -0.978795 1.198662
  H 1.810778 -1.157961 2.633092
  H 1.914344 0.580106 2.955618
  H 2.744282 -0.616978 -3.075010
  H 2.743613 1.135695 -3.053453
  H 0.399953 1.162813 -2.323425
  H 0.392358 -0.612869 -2.200710
  H 0.908673 1.001704 -4.740452
  H -0.588338 0.150930 -4.341257
  H 0.896587 -0.761614 -4.633420
  H 4.955622 0.180987 -0.279792
  H 4.822505 0.176688 -3.326152
 28
 70.451383
  C 1.005171 0.757239 0.382367
  C 2.322479 0.112029 0.083410
  C 3.222786 -0.158855 1.365850
  C 2.455772 -0.374235 2.662279
  H 3.166283 -0.629383 3.454631
  C 3.020577 0.241407 -1.170722
  C 2.360811 0.267030 -2.533606
  C 0.843780 0.205888 -2.697386
  C 0.483219 0.067308 -4.176362
  C 4.438117 0.208233 -1.220629
  C 5.214961 0.218451 -2.319787
  H 6.288635 0.221667 -2.228983
  H 0.529917 0.541377 1.314741
  H 1.680202 -0.683405 -0.005278
  H 0.378217 1.147937 -0.395184
  H 3.898409 0.685790 1.494757
  H 3.816811 -1.051073 1.160619
  H 1.743862 -1.192376 2.574944
  H 1.928795 0.522176 2.967132
  H 2.769627 -0.596486 -3.084901
  H 2.717365 1.158647 -3.059556
  H 0.380926 1.116362 -2.325128
  H 0.431602 -0.650795 -2.155860
  H 0.865861 0.912185 -4.742119
  H -0.596805 0.030169 -4.304690
  H 0.907305 -0.840983 -4.592282
  H 4.963755 0.203441 -0.276770
  H 4.837337 0.222251 -3.329021
