 20
 0.000000
  C 1.007535 -0.071250 0.048186
  C 2.503730 -0.082267 0.026559
  C 3.219158 -0.595203 -0.980423
  C 4.656983 -0.606330 -1.002264
  C 5.376683 -1.121859 -2.014333
  C 6.815057 -1.131535 -2.033327
  C 7.534750 -1.642902 -3.037234
  C 9.024899 -1.661225 -3.073197
  H 0.645473 0.395042 0.963590
  H 0.611930 -1.086112 0.009549
  H 0.611930 0.494198 -0.795446
  H 3.004320 0.353156 0.881371
  H 2.707528 -1.028585 -1.831214
  H 5.162163 -0.171559 -0.148739
  H 4.871399 -1.556641 -2.867885
  H 7.321146 -0.696842 -1.179951
  H 7.037578 -2.079507 -3.894343
  H 9.457324 -1.207731 -2.182919
  H 9.384907 -1.115028 -3.946540
  H 9.384906 -2.688800 -3.144888
 20
 1.716307
  C 0.984362 -0.111079 -0.030011
  C 2.478128 -0.088062 0.015183
  C 3.258571 -0.579084 -0.948769
  C 4.684885 -0.559545 -0.910407
  C 5.459363 -1.049360 -1.871997
  C 6.907246 -1.059380 -1.891666
  C 7.517244 -1.600945 -2.954860
  C 8.979371 -1.717206 -3.183120
  H 0.558220 0.342473 0.860367
  H 0.618408 -1.135021 -0.103013
  H 0.618414 0.431904 -0.901190
  H 2.932552 0.357368 0.889634
  H 2.807156 -1.025445 -1.825049
  H 5.139976 -0.114978 -0.037653
  H 5.039103 -1.509209 -2.774756
  H 7.456105 -0.635448 -1.059424
  H 6.838344 -1.993732 -3.725953
  H 9.536617 -1.294006 -2.352296
  H 9.262312 -1.197349 -4.098526
  H 9.262313 -2.763337 -3.300846
 20
 6.854936
  C 0.971399 -0.146269 -0.099081
  C 2.461571 -0.096509 -0.001422
  C 3.275973 -0.568708 -0.928444
  C 4.718883 -0.522871 -0.838446
  C 5.541992 -1.003322 -1.781624
  C 6.978052 -1.012514 -1.799653
  C 7.496637 -1.569871 -2.893842
  C 8.923324 -1.756401 -3.260018
  H 0.506319 0.298702 0.774474
  H 0.627071 -1.176044 -0.186111
  H 0.627065 0.388793 -0.983198
  H 2.877999 0.356863 0.888635
  H 2.861171 -1.025712 -1.825584
  H 5.142016 -0.066142 0.058193
  H 5.201636 -1.480240 -2.717930
  H 7.548475 -0.606180 -1.001966
  H 6.695115 -1.912606 -3.566701
  H 9.577783 -1.360541 -2.482864
  H 9.143289 -1.248394 -4.200045
  H 9.143275 -2.815416 -3.401805
 20
 15.195509
  C 0.960776 -0.174441 -0.154423
  C 2.448448 -0.102065 -0.012316
  C 3.306919 -0.566758 -0.924566
  C 4.744055 -0.499571 -0.792656
  C 5.600189 -0.966690 -1.709663
  C 7.034411 -0.976483 -1.728891
  C 7.486259 -1.545780 -2.846510
  C 8.868134 -1.786413 -3.318890
  H 0.462880 0.263746 0.705776
  H 0.634323 -1.210589 -0.252405
  H 0.634347 0.355502 -1.050143
  H 2.829512 0.356622 0.888155
  H 2.931604 -1.025379 -1.824899
  H 5.124916 -0.046529 0.096732
  H 5.333481 -1.457146 -2.672509
  H 7.638505 -0.571112 -0.933094
  H 6.581389 -1.843525 -3.431013
  H 9.590170 -1.419664 -2.598887
  H 9.036245 -1.280506 -4.283394
  H 9.036170 -2.863719 -3.476703
 20
 26.500950
  C 0.960809 -0.202797 -0.210086
  C 2.447772 -0.111220 -0.030290
  C 3.332181 -0.563996 -0.919144
  C 4.759033 -0.478116 -0.750541
  C 5.634575 -0.933831 -1.645165
  C 7.076719 -0.948931 -1.674807
  C 7.476998 -1.529433 -2.814427
  C 8.813839 -1.812769 -3.370676
  H 0.436295 0.227933 0.635475
  H 0.650117 -1.241148 -0.316088
  H 0.650136 0.321958 -1.112316
  H 2.801964 0.354057 0.883116
  H 2.983801 -1.030627 -1.835209
  H 5.117482 -0.011780 0.164949
  H 5.434790 -1.439687 -2.638245
  H 7.698293 -0.553426 -0.898366
  H 6.492980 -1.782485 -3.311199
  H 9.592203 -1.472237 -2.702124
  H 8.935107 -1.314800 -4.336630
  H 8.935073 -2.886676 -3.535761
 20
 39.505298
  C 0.966700 -0.218575 -0.241038
  C 2.435535 -0.116764 -0.041180
  C 3.337909 -0.563608 -0.918418
  C 4.763023 -0.467538 -0.729806
  C 5.654415 -0.917893 -1.613925
  C 7.095929 -0.938103 -1.653578
  C 7.468165 -1.521503 -2.798905
  C 8.784894 -1.829954 -3.404476
  H 0.425893 0.209923 0.600169
  H 0.667234 -1.258823 -0.351218
  H 0.667234 0.303923 -1.147248
  H 2.767572 0.346179 0.867661
  H 3.007513 -1.030248 -1.834509
  H 5.099699 -0.002716 0.182724
  H 5.505312 -1.437981 -2.634957
  H 7.729688 -0.545885 -0.883581
  H 6.419513 -1.744127 -3.235966
  H 9.610230 -1.499062 -2.754873
  H 8.878737 -1.337567 -4.368981
  H 8.878767 -2.899723 -3.573316
 20
 53.592089
  C 0.968907 -0.231363 -0.266164
  C 2.430628 -0.121931 -0.051332
  C 3.343266 -0.563986 -0.919097
  C 4.764055 -0.460413 -0.715819
  C 5.666642 -0.905827 -1.590200
  C 7.105594 -0.931670 -1.640791
  C 7.466845 -1.515264 -2.786630
  C 8.766897 -1.840403 -3.425112
  H 0.417840 0.192876 0.566605
  H 0.676013 -1.273572 -0.380404
  H 0.676008 0.288968 -1.176446
  H 2.752207 0.344408 0.864080
  H 3.022751 -1.035339 -1.844413
  H 5.089367 0.010382 0.208411
  H 5.546194 -1.444476 -2.647577
  H 7.748739 -0.539171 -0.870221
  H 6.355812 -1.722114 -3.192637
  H 9.608803 -1.522462 -2.800952
  H 8.842385 -1.347702 -4.398195
  H 8.842473 -2.917361 -3.598813
 20
 65.279747
  C 0.949546 -0.229857 -0.263200
  C 2.433693 -0.122444 -0.052280
  C 3.343186 -0.566381 -0.923812
  C 4.762699 -0.465840 -0.726364
  C 5.658818 -0.914692 -1.607607
  C 7.096103 -0.945267 -1.667820
  C 7.477797 -1.526663 -2.809056
  C 8.779474 -1.836922 -3.418030
  H 0.402490 0.196373 0.573569
  H 0.651071 -1.272592 -0.374815
  H 0.651098 0.292979 -1.172265
  H 2.763063 0.345402 0.866235
  H 3.019835 -1.034652 -1.843144
  H 5.089959 0.004098 0.196210
  H 5.562567 -1.478908 -2.715371
  H 7.728667 -0.553032 -0.897827
  H 6.306542 -1.733019 -3.214251
  H 9.598453 -1.515359 -2.786760
  H 8.867952 -1.343153 -4.385308
  H 8.867902 -2.909561 -3.587275
 20
 75.099909
  C 0.948580 -0.227268 -0.258112
  C 2.421990 -0.122729 -0.052854
  C 3.326481 -0.567938 -0.926866
  C 4.748838 -0.469558 -0.733689
  C 5.640882 -0.918861 -1.615792
  C 7.080743 -0.955418 -1.687684
  C 7.483652 -1.534254 -2.823992
  C 8.803386 -1.837851 -3.419981
  H 0.403591 0.201549 0.583719
  H 0.648614 -1.272879 -0.369010
  H 0.648610 0.297834 -1.169140
  H 2.753626 0.344368 0.864158
  H 2.997754 -1.037481 -1.848672
  H 5.078036 0.000368 0.188848
  H 5.549991 -1.510333 -2.777008
  H 7.711379 -0.558774 -0.908980
  H 6.253105 -1.748346 -3.244298
  H 9.622548 -1.507466 -2.771421
  H 8.901660 -1.342491 -4.388894
  H 8.901679 -2.913004 -3.588987
 20
 85.897866
  C 0.940444 -0.224902 -0.253471
  C 2.418674 -0.123332 -0.054035
  C 3.317367 -0.569917 -0.930750
  C 4.745438 -0.474378 -0.743112
  C 5.630342 -0.923064 -1.624018
  C 7.058422 -0.971889 -1.720059
  C 7.493333 -1.540964 -2.837135
  C 8.824136 -1.834550 -3.413381
  H 0.398944 0.205392 0.591262
  H 0.637847 -1.268746 -0.363379
  H 0.637861 0.299965 -1.162461
  H 2.754746 0.342250 0.860020
  H 2.982458 -1.039845 -1.853325
  H 5.078296 -0.002195 0.183844
  H 5.540582 -1.541865 -2.838921
  H 7.682061 -0.571788 -0.934578
  H 6.202554 -1.765447 -3.277869
  H 9.632981 -1.498643 -2.753931
  H 8.933281 -1.336930 -4.383279
  H 8.933228 -2.911484 -3.581013
 20
 95.880456
  C 0.925787 -0.217394 -0.238770
  C 2.415276 -0.120036 -0.047593
  C 3.308725 -0.569838 -0.930592
  C 4.738230 -0.478797 -0.751823
  C 5.618793 -0.930366 -1.638337
  C 7.039477 -0.989382 -1.754278
  C 7.518141 -1.550243 -2.855291
  C 8.862023 -1.825382 -3.395394
  H 0.391115 0.213918 0.607919
  H 0.618931 -1.257274 -0.346378
  H 0.618973 0.306945 -1.143155
  H 2.757723 0.342733 0.860903
  H 2.968367 -1.036895 -1.847507
  H 5.074613 -0.007208 0.173971
  H 5.493083 -1.600388 -2.953744
  H 7.651752 -0.583886 -0.958202
  H 6.133199 -1.814516 -3.374126
  H 9.648459 -1.481635 -2.720521
  H 8.988041 -1.328130 -4.358239
  H 8.987945 -2.896220 -3.559164
 20
 104.791057
  C 0.924304 -0.211752 -0.227669
  C 2.409657 -0.117298 -0.042233
  C 3.297972 -0.569191 -0.929364
  C 4.727721 -0.481239 -0.756673
  C 5.602938 -0.933868 -1.645275
  C 7.012818 -1.008379 -1.791616
  C 7.540395 -1.557796 -2.870204
  C 8.897767 -1.815285 -3.375688
  H 0.397554 0.217812 0.615606
  H 0.614982 -1.251711 -0.333875
  H 0.615013 0.313754 -1.131264
  H 2.758111 0.347578 0.870401
  H 2.953296 -1.035329 -1.844455
  H 5.062595 -0.010940 0.166602
  H 5.434126 -1.658569 -3.068057
  H 7.608959 -0.598962 -0.987833
  H 6.056543 -1.865089 -3.473513
  H 9.667919 -1.463161 -2.684413
  H 9.039296 -1.317017 -4.333752
  H 9.039312 -2.883378 -3.535980
 20
 111.889594
  C 0.928622 -0.207348 -0.218978
  C 2.404732 -0.114858 -0.037418
  C 3.288819 -0.568211 -0.927429
  C 4.716867 -0.482362 -0.758905
  C 5.586370 -0.935365 -1.648247
  C 6.983084 -1.028875 -1.831884
  C 7.564444 -1.564487 -2.883406
  C 8.933067 -1.802375 -3.350438
  H 0.408007 0.220480 0.620902
  H 0.618085 -1.248289 -0.324247
  H 0.618078 0.319530 -1.122888
  H 2.758693 0.354360 0.883736
  H 2.941542 -1.033753 -1.841338
  H 5.047243 -0.013176 0.162189
  H 5.357074 -1.724021 -3.196589
  H 7.557826 -0.616595 -1.022485
  H 5.970704 -1.925988 -3.593119
  H 9.685632 -1.441674 -2.642396
  H 9.090811 -1.301688 -4.305095
  H 9.090947 -2.869575 -3.506900
 20
 117.081090
  C 0.924759 -0.205038 -0.214458
  C 2.402309 -0.113818 -0.035350
  C 3.285715 -0.568220 -0.927379
  C 4.711628 -0.482951 -0.759981
  C 5.577193 -0.936979 -1.651284
  C 6.959510 -1.048418 -1.870070
  C 7.587787 -1.570525 -2.895045
  C 8.965133 -1.789620 -3.325169
  H 0.399119 0.228565 0.636739
  H 0.613955 -1.244868 -0.319480
  H 0.613915 0.321445 -1.117482
  H 2.754949 0.351496 0.878120
  H 2.938073 -1.033148 -1.840058
  H 5.039100 -0.010166 0.168161
  H 5.269543 -1.794019 -3.333820
  H 7.516294 -0.630569 -1.049748
  H 5.880043 -1.994070 -3.726566
  H 9.698779 -1.421676 -2.602809
  H 9.138723 -1.284540 -4.279843
  H 9.138615 -2.858351 -3.477837
