 18
 0.000000
  H 1.348323 0.064740 -0.011601
  C 2.427047 0.066657 -0.045632
  C 3.132955 -0.007947 1.276563
  H 2.447369 -0.055370 2.116973
  C 3.071889 0.131616 -1.196825
  C 2.468953 0.208852 -2.565605
  C 0.945666 0.212870 -2.636731
  C 0.465144 0.294439 -4.082286
  H 4.155637 0.131881 -1.201496
  H 3.773126 0.864604 1.409226
  H 3.773134 -0.889885 1.310232
  H 2.844955 -0.636355 -3.154096
  H 2.844958 1.114902 -3.055279
  H 0.551133 1.068939 -2.086041
  H 0.551130 -0.699719 -2.185840
  H 0.824312 1.205115 -4.557162
  H -0.622097 0.296616 -4.120815
  H 0.824321 -0.557061 -4.656614
 18
 13.889449
  H 1.324211 0.059772 0.076418
  C 2.399205 0.062164 0.033987
  C 3.121119 -0.011487 1.339305
  H 2.442860 -0.059241 2.185569
  C 3.106131 0.135446 -1.264697
  C 2.483381 0.211724 -2.616527
  C 0.959145 0.214020 -2.657147
  C 0.448448 0.295013 -4.092498
  H 4.185978 0.136232 -1.278595
  H 3.762422 0.861717 1.465222
  H 3.762431 -0.893314 1.366198
  H 2.850105 -0.633412 -3.211179
  H 2.850105 1.118395 -3.112329
  H 0.575967 1.069187 -2.097418
  H 0.575966 -0.698687 -2.197173
  H 0.796952 1.206111 -4.574646
  H -0.639318 0.295937 -4.108851
  H 0.796954 -0.556072 -4.674087
 18
 42.540873
  H 1.298275 0.057043 0.124754
  C 2.365475 0.058506 0.098807
  C 3.095770 -0.013567 1.376160
  H 2.414799 -0.061237 2.220919
  C 3.147768 0.139697 -1.340054
  C 2.507939 0.214287 -2.661949
  C 0.982870 0.214352 -2.663060
  C 0.430900 0.294511 -4.083624
  H 4.218485 0.139664 -1.339429
  H 3.739131 0.860708 1.501371
  H 3.739133 -0.896371 1.402227
  H 2.864421 -0.632117 -3.264002
  H 2.864422 1.123049 -3.164964
  H 0.616712 1.067674 -2.090188
  H 0.616711 -0.698000 -2.189818
  H 0.764790 1.206162 -4.575391
  H -0.656795 0.293743 -4.069992
  H 0.764788 -0.556032 -4.674825
 18
 74.249904
  H 1.263448 0.053766 0.182838
  C 2.333870 0.054261 0.174048
  C 3.086194 -0.017255 1.441523
  H 2.407621 -0.065177 2.290774
  C 3.189728 0.143418 -1.405964
  C 2.522496 0.217479 -2.718507
  C 0.996712 0.215605 -2.685249
  C 0.409037 0.294920 -4.090887
  H 4.263646 0.142464 -1.389035
  H 3.732108 0.856737 1.564605
  H 3.732118 -0.899545 1.465508
  H 2.867667 -0.629826 -3.329301
  H 2.867666 1.128115 -3.230104
  H 0.645738 1.067738 -2.101210
  H 0.645737 -0.696821 -2.200777
  H 0.729636 1.206878 -4.590730
  H -0.677932 0.292648 -4.050605
  H 0.729634 -0.555016 -4.690143
 18
 104.927494
  H 1.234012 0.050641 0.238232
  C 2.299410 0.050294 0.244342
  C 3.066350 -0.019838 1.487274
  H 2.393984 -0.068056 2.341758
  C 3.227261 0.147463 -1.477661
  C 2.540131 0.220142 -2.765682
  C 1.016473 0.216239 -2.696471
  C 0.393621 0.294666 -4.086406
  H 4.295521 0.145735 -1.447039
  H 3.713708 0.853625 1.604943
  H 3.713710 -0.900989 1.505936
  H 2.872933 -0.626762 -3.383691
  H 2.872936 1.131198 -3.284500
  H 0.680970 1.067266 -2.101889
  H 0.680970 -0.696269 -2.201400
  H 0.700573 1.207133 -4.594205
  H -0.691911 0.290870 -4.019115
  H 0.700572 -0.554888 -4.693627
 18
 132.126952
  H 1.199020 0.047129 0.300451
  C 2.266910 0.045969 0.320988
  C 3.055625 -0.023515 1.552449
  H 2.390583 -0.072233 2.415825
  C 3.265773 0.151181 -1.543523
  C 2.553450 0.223243 -2.820628
  C 1.029649 0.217443 -2.717816
  C 0.373810 0.295007 -4.092450
  H 4.336602 0.148715 -1.499817
  H 3.705937 0.850920 1.664872
  H 3.705944 -0.905045 1.565792
  H 2.873931 -0.625049 -3.447595
  H 2.873928 1.136677 -3.348184
  H 0.708687 1.067500 -2.113878
  H 0.708686 -0.695156 -2.213339
  H 0.667554 1.207772 -4.607394
  H -0.709847 0.289772 -3.999671
  H 0.667553 -0.554032 -4.706798
 18
 155.336747
  H 1.169123 0.043586 0.363239
  C 2.233199 0.041813 0.394625
  C 3.037387 -0.026429 1.604060
  H 2.383005 -0.075603 2.475528
  C 3.299751 0.155166 -1.614143
  C 2.568263 0.226025 -2.869906
  C 1.048044 0.218226 -2.731675
  C 0.359260 0.294830 -4.089277
  H 4.366843 0.152213 -1.561809
  H 3.688525 0.847333 1.708907
  H 3.688527 -0.906432 1.609950
  H 2.874934 -0.621547 -3.503754
  H 2.874933 1.139519 -3.404383
  H 0.742192 1.067375 -2.118769
  H 0.742189 -0.694482 -2.218182
  H 0.639251 1.208009 -4.611256
  H -0.721712 0.288113 -3.970193
  H 0.639251 -0.553843 -4.710673
 18
 174.349934
  H 1.135520 0.039705 0.432017
  C 2.201232 0.037359 0.473539
  C 3.026445 -0.030222 1.671308
  H 2.382559 -0.080002 2.553517
  C 3.334371 0.158885 -1.680034
  C 2.580150 0.229130 -2.924953
  C 1.060777 0.219449 -2.753359
  C 0.340738 0.295141 -4.094838
  H 4.403670 0.155540 -1.620770
  H 3.680060 0.845007 1.769224
  H 3.680067 -0.910910 1.670145
  H 2.873519 -0.619638 -3.567017
  H 2.873519 1.144738 -3.467462
  H 0.769055 1.067893 -2.132392
  H 0.769054 -0.693463 -2.231777
  H 0.607472 1.208647 -4.623185
  H -0.737281 0.287023 -3.950933
  H 0.607469 -0.553128 -4.722588
 18
 189.473173
  H 1.106356 0.035615 0.504514
  C 2.169302 0.032941 0.551796
  C 3.010308 -0.033461 1.728672
  H 2.380281 -0.083791 2.620662
  C 3.363447 0.162804 -1.749442
  C 2.591910 0.231981 -2.975461
  C 1.077221 0.220379 -2.769820
  C 0.326873 0.295074 -4.093643
  H 4.431118 0.159394 -1.689081
  H 3.664143 0.841294 1.817398
  H 3.664144 -0.912638 1.718433
  H 2.871120 -0.615919 -3.623596
  H 2.871122 1.147411 -3.524101
  H 0.799895 1.068029 -2.141416
  H 0.799894 -0.692581 -2.240757
  H 0.580182 1.208909 -4.628006
  H -0.747392 0.285551 -3.924832
  H 0.580181 -0.552853 -4.727415
 18
 190.029747
  H 1.123829 0.015040 0.896811
  C 2.212284 0.009980 0.735954
  C 3.015450 -0.048758 1.945937
  H 2.499836 -0.099887 2.916734
  C 3.303170 0.172832 -1.788877
  C 2.565286 0.238048 -3.049589
  C 1.045456 0.228999 -2.869719
  C 0.319378 0.300901 -4.208428
  H 4.396511 0.169054 -1.930847
  H 3.664280 0.834664 1.936856
  H 3.676998 -0.918261 1.848612
  H 2.867537 -0.602574 -3.695022
  H 2.868893 1.141119 -3.599801
  H 0.760922 1.077127 -2.246107
  H 0.760459 -0.680615 -2.340321
  H 0.583262 1.212778 -4.741725
  H -0.758212 0.293411 -4.061274
  H 0.582623 -0.549065 -4.835981
 18
 184.854064
  H 1.013455 -0.008275 1.405879
  C 2.077849 -0.034048 1.105851
  C 2.961729 -0.071320 2.261913
  H 2.534881 -0.103991 3.271767
  C 3.454749 0.211385 -2.102685
  C 2.606536 0.241095 -3.287057
  C 1.108967 0.227525 -2.987675
  C 0.276684 0.308746 -4.260114
  H 4.515293 0.178414 -2.416228
  H 3.602954 0.809038 2.150317
  H 3.650430 -0.906846 2.111051
  H 2.865488 -0.577649 -3.974248
  H 2.875673 1.152251 -3.844777
  H 0.874413 1.065948 -2.332866
  H 0.869989 -0.685522 -2.443238
  H 0.493158 1.226675 -4.804873
  H -0.784142 0.295817 -4.025079
  H 0.489855 -0.534451 -4.914726
