9

C 1.047947 -0.112011 -0.038947
C 2.54391 -0.135375 -0.038393
C 3.259565 -1.265084 -0.04521
H 4.329425038581152 -1.2823860399527438 -0.04558048698871163
H 0.686401 0.915696 -0.031476
H 0.651536 -0.613279 0.844088
H 0.652486 -0.59935 -0.930356
H 3.043954 0.824374 -0.031896
H 2.748589 -2.220182 -0.050033
