 9
 0.000000
  C 1.048661 -0.113286 -0.039251
  C 2.547282 -0.143399 -0.038993
  C 3.252822 -1.258542 -0.045075
  H 4.325696 -1.273086 -0.045191
  H 0.689895 0.914410 -0.030592
  H 0.651595 -0.614983 0.842038
  H 0.650862 -0.599309 -0.929398
  H 3.049849 0.814108 -0.032368
  H 2.747151 -2.213510 -0.048973
 9
 1.305426
  C 1.077088 -0.116200 -0.025134
  C 2.571088 -0.094298 -0.008369
  C 3.222861 -1.234770 -0.062417
  H 4.289174 -1.328451 -0.063427
  H 0.642785 0.879068 -0.099357
  H 0.691794 -0.596593 0.877555
  H 0.769570 -0.725485 -0.879354
  H 3.074870 0.864136 0.018259
  H 2.625028 -2.134541 -0.125430
 9
 4.149519
  C 1.094375 -0.125715 -0.013288
  C 2.586646 -0.061857 0.032223
  C 3.205175 -1.218799 -0.089968
  H 4.268554 -1.377571 -0.088824
  H 0.610058 0.831574 -0.205802
  H 0.708541 -0.526669 0.929684
  H 0.876114 -0.860000 -0.792594
  H 3.085979 0.891485 0.096347
  H 2.525514 -2.050885 -0.239931
 9
 8.687028
  C 1.107561 -0.137592 -0.002521
  C 2.596502 -0.039845 0.064749
  C 3.189722 -1.204406 -0.123218
  H 4.240057 -1.414175 -0.129060
  H 0.595951 0.764792 -0.309260
  H 0.710637 -0.449746 0.965447
  H 0.979888 -0.972913 -0.702030
  H 3.094992 0.910899 0.184293
  H 2.439398 -1.974477 -0.329806
 9
 14.933452
  C 1.114705 -0.149747 0.010034
  C 2.601696 -0.031547 0.091929
  C 3.177453 -1.194386 -0.157968
  H 4.221546 -1.438724 -0.176549
  H 0.588896 0.704357 -0.409443
  H 0.697460 -0.366741 0.990321
  H 1.071846 -1.072457 -0.608678
  H 3.098860 0.909958 0.272515
  H 2.374104 -1.903256 -0.405395
 9
 24.397564
  C 1.123367 -0.161426 0.016022
  C 2.604785 -0.025004 0.106106
  C 3.168074 -1.187773 -0.182354
  H 4.205223 -1.456149 -0.208938
  H 0.592314 0.654336 -0.466492
  H 0.684115 -0.326611 0.997568
  H 1.158551 -1.132916 -0.554433
  H 3.099355 0.910565 0.324252
  H 2.302042 -1.845751 -0.438703
 9
 35.455777
  C 1.125090 -0.170763 0.019709
  C 2.607367 -0.023530 0.117591
  C 3.168740 -1.181627 -0.205274
  H 4.200661 -1.471315 -0.242412
  H 0.595844 0.609114 -0.517146
  H 0.669865 -0.288548 1.000698
  H 1.223638 -1.184049 -0.509220
  H 3.096726 0.904276 0.373904
  H 2.239912 -1.795033 -0.458644
 9
 47.309804
  C 1.125724 -0.174695 0.026790
  C 2.604927 -0.029790 0.124891
  C 3.169608 -1.180300 -0.221252
  H 4.202024 -1.468406 -0.270974
  H 0.603354 0.576563 -0.558808
  H 0.653790 -0.250121 1.001655
  H 1.272908 -1.234639 -0.471902
  H 3.094026 0.889976 0.415292
  H 2.189328 -1.763038 -0.479487
 9
 59.169774
  C 1.126283 -0.178108 0.034504
  C 2.602743 -0.039486 0.136923
  C 3.174984 -1.175819 -0.239136
  H 4.208705 -1.462700 -0.292798
  H 0.620212 0.558715 -0.584119
  H 0.633123 -0.226884 0.997851
  H 1.305984 -1.275855 -0.457192
  H 3.087346 0.880151 0.438856
  H 2.143239 -1.748069 -0.482490
 9
 68.967496
  C 1.120988 -0.174187 0.043489
  C 2.600531 -0.046773 0.138447
  C 3.183319 -1.172652 -0.253985
  H 4.220081 -1.450153 -0.309586
  H 0.627085 0.534641 -0.616605
  H 0.617396 -0.187187 1.003866
  H 1.322968 -1.321956 -0.439449
  H 3.084439 0.860215 0.475484
  H 2.110019 -1.744469 -0.505240
 9
 79.010401
  C 1.119124 -0.167886 0.050091
  C 2.597993 -0.056554 0.140972
  C 3.194616 -1.167571 -0.258892
  H 4.233971 -1.434032 -0.315273
  H 0.637589 0.529964 -0.630059
  H 0.607926 -0.166048 1.004693
  H 1.327634 -1.368689 -0.443023
  H 3.077168 0.847003 0.491898
  H 2.072619 -1.757602 -0.520352
 9
 89.611443
  C 1.114575 -0.150022 0.059635
  C 2.593378 -0.068588 0.141423
  C 3.214604 -1.163736 -0.252840
  H 4.258287 -1.410355 -0.311072
  H 0.643676 0.539148 -0.634480
  H 0.599366 -0.141123 1.013966
  H 1.320921 -1.433468 -0.461070
  H 3.067974 0.833465 0.497186
  H 2.031579 -1.792487 -0.553612
 9
 99.988316
  C 1.114017 -0.125129 0.067595
  C 2.582782 -0.087268 0.138179
  C 3.240946 -1.152963 -0.253725
  H 4.290009 -1.375554 -0.304832
  H 0.654205 0.559562 -0.636957
  H 0.598445 -0.114051 1.019769
  H 1.297482 -1.514451 -0.490318
  H 3.050292 0.815197 0.509653
  H 1.980771 -1.852916 -0.584691
 9
 109.010549
  C 1.109566 -0.090200 0.078526
  C 2.572622 -0.111268 0.135829
  C 3.274029 -1.143720 -0.242895
  H 4.328896 -1.330881 -0.289714
  H 0.660470 0.593934 -0.630919
  H 0.594718 -0.086994 1.032668
  H 1.256655 -1.617681 -0.537468
  H 3.031908 0.792109 0.510205
  H 1.923500 -1.942401 -0.638037
