 20
 0.000000
  C 1.007732 -0.071618 0.047501
  C 2.503862 -0.082233 0.026345
  C 3.219304 -0.595299 -0.980453
  C 4.657282 -0.605965 -1.001686
  C 5.377072 -1.121633 -2.013590
  C 6.815772 -1.131218 -2.032752
  C 7.533456 -1.643380 -3.037760
  C 9.024190 -1.661116 -3.073347
  H 0.645685 0.394946 0.962975
  H 0.612255 -1.086663 0.009445
  H 0.612078 0.493933 -0.796171
  H 3.004111 0.353580 0.881307
  H 2.707767 -1.028996 -1.831249
  H 5.162244 -0.170838 -0.148081
  H 4.872609 -1.556843 -2.867363
  H 7.322936 -0.696540 -1.179988
  H 7.035119 -2.079593 -3.894578
  H 9.456845 -1.208766 -2.182486
  H 9.385199 -1.113919 -3.945800
  H 9.383883 -2.688821 -3.145721
 20
 5.402875
  C 1.005368 -0.062994 0.028680
  C 2.499504 -0.081893 0.022197
  C 3.230907 -0.586251 -0.971572
  C 4.657282 -0.605982 -0.982536
  C 5.391378 -1.113795 -1.982746
  C 6.837684 -1.147741 -1.990068
  C 7.579056 -1.655835 -3.000772
  C 9.036313 -1.682688 -3.068234
  H 0.622916 0.394550 0.936210
  H 0.608677 -1.075672 -0.041226
  H 0.625231 0.495560 -0.826433
  H 2.995964 0.342778 0.882382
  H 2.735611 -1.012633 -1.835086
  H 5.153239 -0.181854 -0.120980
  H 4.891027 -1.539555 -2.846530
  H 7.340593 -0.710212 -1.130911
  H 7.056624 -2.094432 -3.848552
  H 9.530993 -1.189197 -2.228943
  H 9.083276 -1.106501 -3.968476
  H 9.457062 -2.687107 -3.230798
 20
 17.503830
  C 1.003117 -0.048005 0.000846
  C 2.494963 -0.079723 0.017046
  C 3.241756 -0.585383 -0.973787
  C 4.675169 -0.618429 -0.963519
  C 5.422632 -1.126867 -1.961601
  C 6.853378 -1.182309 -1.946554
  C 7.600515 -1.682756 -2.960336
  C 9.042592 -1.676208 -3.076068
  H 0.610789 0.406147 0.907202
  H 0.598289 -1.057184 -0.083252
  H 0.640193 0.521024 -0.855857
  H 2.983953 0.334095 0.888832
  H 2.756196 -1.002242 -1.850625
  H 5.164418 -0.204665 -0.089386
  H 4.928972 -1.542530 -2.837974
  H 7.351261 -0.743904 -1.086961
  H 7.073394 -2.137531 -3.789708
  H 9.577318 -1.152226 -2.295963
  H 8.800314 -1.093896 -3.944364
  H 9.504446 -2.625738 -3.320831
 20
 30.742649
  C 1.002854 -0.042577 -0.015301
  C 2.501305 -0.073779 0.009328
  C 3.252921 -0.585750 -0.974168
  C 4.682519 -0.618955 -0.959129
  C 5.434322 -1.134196 -1.953860
  C 6.860545 -1.191555 -1.938062
  C 7.607140 -1.698794 -2.959140
  C 9.053167 -1.680087 -3.070430
  H 0.607132 0.415125 0.881901
  H 0.598768 -1.050997 -0.094361
  H 0.644078 0.520679 -0.876296
  H 2.983238 0.346104 0.880740
  H 2.771058 -1.006769 -1.847104
  H 5.167070 -0.201171 -0.089645
  H 4.945596 -1.552122 -2.820580
  H 7.361131 -0.750909 -1.090728
  H 7.076264 -2.168061 -3.779159
  H 9.589615 -1.182239 -2.284728
  H 8.616313 -1.053836 -3.846792
  H 9.537526 -2.575346 -3.427657
 20
 42.112491
  C 1.003132 -0.044984 -0.027829
  C 2.500121 -0.067807 0.000464
  C 3.254118 -0.583682 -0.974175
  C 4.687409 -0.609368 -0.958150
  C 5.440394 -1.129559 -1.947884
  C 6.864165 -1.184267 -1.933439
  C 7.609676 -1.701908 -2.963560
  C 9.067965 -1.697655 -3.071406
  H 0.602232 0.420072 0.866632
  H 0.604164 -1.057137 -0.098142
  H 0.642490 0.508894 -0.895169
  H 2.977952 0.362865 0.868816
  H 2.773608 -1.015993 -1.844905
  H 5.172797 -0.180631 -0.089540
  H 4.948206 -1.558936 -2.813774
  H 7.370349 -0.736171 -1.089694
  H 7.071096 -2.189434 -3.770481
  H 9.620798 -1.243098 -2.262936
  H 8.487208 -1.019519 -3.746205
  H 9.551187 -2.538519 -3.538840
 20
 50.508686
  C 1.000161 -0.048587 -0.035139
  C 2.498678 -0.061819 -0.005080
  C 3.257134 -0.581546 -0.975162
  C 4.688591 -0.598848 -0.959725
  C 5.443685 -1.123362 -1.947058
  C 6.866966 -1.171271 -1.937714
  C 7.611531 -1.699640 -2.973509
  C 9.078251 -1.719499 -3.066616
  H 0.595212 0.421316 0.854722
  H 0.607016 -1.062471 -0.097301
  H 0.637257 0.495292 -0.906425
  H 2.971323 0.378092 0.857842
  H 2.778684 -1.023764 -1.841460
  H 5.174552 -0.159584 -0.092996
  H 4.949479 -1.561780 -2.807225
  H 7.378226 -0.720253 -1.099529
  H 7.068929 -2.205550 -3.766521
  H 9.635413 -1.308629 -2.246275
  H 8.397473 -0.993350 -3.654992
  H 9.557841 -2.503024 -3.624875
 20
 57.223269
  C 1.008074 -0.053379 -0.039245
  C 2.502929 -0.059539 -0.009275
  C 3.263039 -0.580086 -0.977347
  C 4.692261 -0.590355 -0.963371
  C 5.452611 -1.117680 -1.952463
  C 6.863617 -1.157267 -1.947307
  C 7.603931 -1.687793 -2.981007
  C 9.072912 -1.743217 -3.051723
  H 0.605456 0.413713 0.839667
  H 0.619148 -1.068384 -0.095718
  H 0.640280 0.486272 -0.913399
  H 2.976876 0.388007 0.854490
  H 2.781482 -1.032769 -1.849405
  H 5.168900 -0.153285 -0.115279
  H 4.958473 -1.561707 -2.807726
  H 7.381262 -0.697766 -1.099331
  H 7.050232 -2.210490 -3.775606
  H 9.637595 -1.349549 -2.220246
  H 8.312321 -0.974043 -3.599071
  H 9.544385 -2.481873 -3.654447
 20
 62.040881
  C 1.002715 -0.062644 -0.045435
  C 2.492607 -0.058840 -0.012655
  C 3.259424 -0.577890 -0.979500
  C 4.687018 -0.574656 -0.967053
  C 5.448213 -1.101789 -1.954562
  C 6.863335 -1.139777 -1.950695
  C 7.611680 -1.678112 -2.994202
  C 9.082240 -1.779186 -3.044046
  H 0.589030 0.413048 0.846352
  H 0.619151 -1.086855 -0.099407
  H 0.632588 0.474005 -0.926377
  H 2.958828 0.392119 0.843866
  H 2.789337 -1.029815 -1.835083
  H 5.178347 -0.118348 -0.093995
  H 4.954759 -1.548743 -2.800426
  H 7.376005 -0.686758 -1.120919
  H 7.061550 -2.208168 -3.764972
  H 9.651063 -1.404101 -2.219414
  H 8.257717 -0.949236 -3.568847
  H 9.550830 -2.490255 -3.701258
 20
 64.394947
  C 0.989367 -0.069078 -0.048783
  C 2.486948 -0.052695 -0.012725
  C 3.260587 -0.573540 -0.976710
  C 4.685350 -0.561179 -0.963441
  C 5.453858 -1.093660 -1.950213
  C 6.858593 -1.118616 -1.947752
  C 7.618741 -1.659718 -3.010065
  C 9.085095 -1.839827 -3.029890
  H 0.571146 0.406878 0.834383
  H 0.615390 -1.092113 -0.097577
  H 0.618280 0.455033 -0.929916
  H 2.950862 0.410654 0.847160
  H 2.790632 -1.036555 -1.833300
  H 5.169536 -0.100979 -0.103146
  H 4.957849 -1.552008 -2.796830
  H 7.379944 -0.658772 -1.124848
  H 7.065641 -2.222206 -3.751490
  H 9.675728 -1.478537 -2.215981
  H 8.212909 -0.894105 -3.543208
  H 9.546668 -2.472425 -3.761535
 20
 65.284454
  C 0.989365 -0.074238 -0.051912
  C 2.484617 -0.045503 -0.015786
  C 3.262454 -0.568884 -0.977961
  C 4.683601 -0.554023 -0.962510
  C 5.458876 -1.093051 -1.950156
  C 6.851868 -1.107239 -1.949225
  C 7.621312 -1.645872 -3.025745
  C 9.077975 -1.896721 -3.004489
  H 0.567792 0.403518 0.827180
  H 0.623437 -1.099643 -0.094472
  H 0.615760 0.440212 -0.934479
  H 2.945530 0.426747 0.842721
  H 2.791768 -1.040395 -1.834423
  H 5.162414 -0.091514 -0.114574
  H 4.961464 -1.555405 -2.795429
  H 7.379556 -0.641926 -1.130773
  H 7.064316 -2.229790 -3.755047
  H 9.680372 -1.530201 -2.198152
  H 8.147526 -0.832351 -3.534824
  H 9.543817 -2.454482 -3.788709
 20
 64.115314
  C 0.990091 -0.078250 -0.053782
  C 2.484954 -0.043456 -0.016842
  C 3.265797 -0.564569 -0.980742
  C 4.683505 -0.542091 -0.967120
  C 5.463719 -1.083834 -1.958788
  C 6.846334 -1.099197 -1.953760
  C 7.628241 -1.637165 -3.043541
  C 9.065658 -1.950418 -2.973803
  H 0.567075 0.396732 0.822900
  H 0.627490 -1.107868 -0.096292
  H 0.614882 0.433601 -0.934442
  H 2.944099 0.429832 0.839448
  H 2.794863 -1.038223 -1.836083
  H 5.163035 -0.079314 -0.121721
  H 4.962528 -1.547790 -2.803968
  H 7.379413 -0.632557 -1.134348
  H 7.071529 -2.246750 -3.754054
  H 9.670473 -1.565284 -2.174473
  H 8.058890 -0.768100 -3.555568
  H 9.544053 -2.445820 -3.789750
 20
 62.943672
  C 0.994271 -0.085444 -0.052744
  C 2.484606 -0.046566 -0.017574
  C 3.265750 -0.562803 -0.985307
  C 4.681966 -0.526579 -0.979266
  C 5.464427 -1.067420 -1.975732
  C 6.841474 -1.087330 -1.966731
  C 7.631924 -1.623179 -3.056226
  C 9.051173 -1.988918 -2.941518
  H 0.567528 0.388753 0.831102
  H 0.638227 -1.109708 -0.096356
  H 0.613649 0.428418 -0.939239
  H 2.944875 0.427330 0.837204
  H 2.794041 -1.037548 -1.837679
  H 5.165399 -0.063035 -0.133357
  H 4.959278 -1.534490 -2.818445
  H 7.372769 -0.624818 -1.150354
  H 7.078785 -2.251377 -3.755481
  H 9.653873 -1.599766 -2.141424
  H 7.978382 -0.730391 -3.569713
  H 9.543575 -2.446643 -3.777720
 20
 61.654147
  C 0.998215 -0.085213 -0.053839
  C 2.486423 -0.042788 -0.019126
  C 3.267221 -0.555658 -0.990701
  C 4.675120 -0.514434 -0.984911
  C 5.459678 -1.054229 -1.985083
  C 6.835456 -1.079292 -1.973017
  C 7.635982 -1.613057 -3.069949
  C 9.040150 -2.011825 -2.917985
  H 0.574622 0.384312 0.824028
  H 0.635377 -1.133242 -0.102334
  H 0.621496 0.426464 -0.929536
  H 2.950401 0.432674 0.841015
  H 2.786262 -1.038192 -1.860242
  H 5.163362 -0.049811 -0.131567
  H 4.955620 -1.514865 -2.822880
  H 7.364458 -0.621331 -1.161183
  H 7.087209 -2.258798 -3.751461
  H 9.635492 -1.626237 -2.115407
  H 7.894155 -0.707277 -3.596021
  H 9.544601 -2.449272 -3.760708
