 24
 0.000000
  C 0.818414 0.043963 0.307822
  C 2.308889 0.054891 0.112510
  C 3.199118 -0.014641 1.344916
  C 2.533136 -0.086669 2.716466
  C 3.583257 -0.149266 3.820711
  C 2.912840 0.124087 -1.071905
  C 2.388081 0.205174 -2.482403
  C 0.889261 0.219699 -2.761655
  H 0.726484 0.281954 -3.834218
  H 3.996827 0.125015 -1.072894
  H 0.543835 -0.024405 1.355144
  H 0.369083 -0.811360 -0.190199
  H 0.368536 0.957266 -0.074448
  H 3.850832 0.864927 1.340838
  H 3.845419 -0.892687 1.245871
  H 1.902404 -0.975873 2.784689
  H 1.907491 0.793716 2.879849
  H 4.213445 -1.028567 3.704164
  H 3.104186 -0.200443 4.796320
  H 4.218628 0.733760 3.799151
  H 2.820009 -0.641274 -3.030496
  H 2.818073 1.110355 -2.928725
  H 0.410029 1.077578 -2.299046
  H 0.412069 -0.687210 -2.401966
 24
 5.417245
  C 0.800156 0.003985 0.337878
  C 2.250111 0.054087 0.124990
  C 3.192327 -0.027613 1.341812
  C 2.535296 -0.076348 2.722173
  C 3.593799 -0.151568 3.819893
  C 2.866880 0.144713 -1.056732
  C 2.384523 0.227915 -2.477361
  C 0.891056 0.193817 -2.776011
  H 0.744487 0.262216 -3.852559
  H 3.951583 0.184240 -1.027730
  H 0.502719 -0.026136 1.367146
  H 0.302504 -0.788001 -0.199209
  H 0.606706 0.959679 -0.096414
  H 3.862719 0.837759 1.307778
  H 3.817334 -0.919687 1.224548
  H 1.888065 -0.952563 2.799369
  H 1.927777 0.817806 2.880184
  H 4.205566 -1.043012 3.700793
  H 3.125186 -0.186336 4.801120
  H 4.246411 0.717790 3.782865
  H 2.860469 -0.596934 -3.021251
  H 2.799805 1.150861 -2.900728
  H 0.370925 1.029600 -2.316105
  H 0.441371 -0.735671 -2.436285
 24
 17.322683
  C 0.787971 -0.010772 0.327336
  C 2.227655 0.051704 0.117360
  C 3.196325 -0.045076 1.357264
  C 2.545726 -0.064459 2.734005
  C 3.601157 -0.155638 3.827014
  C 2.850209 0.165982 -1.049288
  C 2.371451 0.256539 -2.473830
  C 0.883171 0.160967 -2.783391
  H 0.742618 0.240783 -3.857884
  H 3.930958 0.232481 -1.012797
  H 0.454064 0.003848 1.353704
  H 0.259066 -0.762536 -0.241779
  H 0.823293 0.949111 -0.135443
  H 3.885452 0.797962 1.309708
  H 3.787316 -0.953592 1.240362
  H 1.879551 -0.921129 2.819017
  H 1.962878 0.843572 2.883655
  H 4.190259 -1.063146 3.713917
  H 3.134278 -0.170026 4.809003
  H 4.275201 0.697287 3.780301
  H 2.882823 -0.537824 -3.028139
  H 2.749252 1.202739 -2.879185
  H 0.318185 0.962103 -2.314104
  H 0.475902 -0.794936 -2.465249
 24
 31.769873
  C 0.775786 -0.038337 0.326127
  C 2.222254 0.057796 0.108857
  C 3.189374 -0.043871 1.348976
  C 2.538432 -0.053481 2.728905
  C 3.596962 -0.152475 3.823232
  C 2.860724 0.177086 -1.057135
  C 2.374529 0.268242 -2.475184
  C 0.883382 0.152639 -2.761184
  H 0.722967 0.233867 -3.833517
  H 3.940190 0.244480 -1.016610
  H 0.434969 -0.017725 1.336361
  H 0.231286 -0.740408 -0.275975
  H 0.997699 0.913802 -0.115038
  H 3.890920 0.794853 1.297200
  H 3.769212 -0.963991 1.227517
  H 1.863159 -0.905541 2.817357
  H 1.963104 0.862687 2.877501
  H 4.176935 -1.065964 3.711003
  H 3.130335 -0.160172 4.806211
  H 4.279207 0.694040 3.773750
  H 2.888583 -0.516550 -3.041222
  H 2.734099 1.221501 -2.882209
  H 0.312681 0.943600 -2.277375
  H 0.496933 -0.812701 -2.439311
 24
 44.664477
  C 0.764505 -0.069565 0.348569
  C 2.209770 0.049137 0.103550
  C 3.174153 -0.047549 1.340671
  C 2.531835 -0.044358 2.723823
  C 3.603564 -0.141326 3.815581
  C 2.858990 0.174731 -1.058613
  C 2.381378 0.275698 -2.479240
  C 0.888187 0.153726 -2.772117
  H 0.725391 0.248109 -3.853970
  H 3.939094 0.247782 -1.004789
  H 0.439808 -0.056454 1.359473
  H 0.190606 -0.717473 -0.275018
  H 1.126437 0.878109 -0.058385
  H 3.883286 0.788026 1.280751
  H 3.746074 -0.975933 1.218803
  H 1.846518 -0.901674 2.824731
  H 1.955712 0.884838 2.872157
  H 4.180166 -1.059829 3.705286
  H 3.144693 -0.140450 4.803916
  H 4.290759 0.702289 3.755947
  H 2.902089 -0.496512 -3.050771
  H 2.733860 1.230610 -2.872186
  H 0.313830 0.934715 -2.278586
  H 0.510190 -0.816988 -2.463471
 24
 54.237335
  C 0.772175 -0.092443 0.350934
  C 2.216690 0.051629 0.099580
  C 3.175060 -0.047534 1.347206
  C 2.530339 -0.036420 2.717409
  C 3.588916 -0.134254 3.801738
  C 2.873640 0.178148 -1.065542
  C 2.384317 0.279898 -2.493379
  C 0.885184 0.149536 -2.759937
  H 0.702947 0.246759 -3.824687
  H 3.951391 0.252489 -1.008921
  H 0.448684 -0.106700 1.374919
  H 0.172738 -0.681138 -0.320331
  H 1.244505 0.865907 -0.003768
  H 3.889676 0.777410 1.292998
  H 3.735196 -0.976267 1.231501
  H 1.849103 -0.879696 2.818264
  H 1.965056 0.885241 2.859072
  H 4.158849 -1.053244 3.695817
  H 3.128252 -0.128033 4.784612
  H 4.278835 0.704265 3.741309
  H 2.904508 -0.491364 -3.079509
  H 2.727215 1.246613 -2.892759
  H 0.316810 0.925077 -2.251147
  H 0.518985 -0.825835 -2.448608
 24
 61.309749
  C 0.755211 -0.120969 0.359885
  C 2.203935 0.050854 0.100091
  C 3.163607 -0.049420 1.341714
  C 2.529141 -0.031104 2.723458
  C 3.604645 -0.123275 3.803550
  C 2.870992 0.176799 -1.070272
  C 2.391388 0.281772 -2.496797
  C 0.895378 0.151811 -2.773345
  H 0.717781 0.256714 -3.846331
  H 3.944008 0.248393 -1.006270
  H 0.435239 -0.162600 1.372657
  H 0.138194 -0.637132 -0.346044
  H 1.319665 0.852163 0.058190
  H 3.884113 0.773170 1.279756
  H 3.719422 -0.983113 1.223262
  H 1.846029 -0.879596 2.837773
  H 1.961569 0.896714 2.866579
  H 4.176696 -1.047639 3.696009
  H 3.151790 -0.112149 4.795468
  H 4.297370 0.719689 3.731661
  H 2.912083 -0.480672 -3.079484
  H 2.731219 1.242310 -2.888472
  H 0.322423 0.926148 -2.260681
  H 0.528208 -0.827163 -2.470749
 24
 66.653357
  C 0.762022 -0.149786 0.365070
  C 2.210388 0.048408 0.101248
  C 3.172944 -0.054197 1.344945
  C 2.533025 -0.027340 2.724395
  C 3.596658 -0.110201 3.801436
  C 2.879088 0.173416 -1.077125
  C 2.392185 0.284029 -2.503144
  C 0.888271 0.156293 -2.772422
  H 0.702481 0.268823 -3.847118
  H 3.968450 0.241538 -1.014772
  H 0.441072 -0.222679 1.373597
  H 0.126500 -0.591380 -0.372848
  H 1.397860 0.844263 0.111702
  H 3.896224 0.763978 1.279388
  H 3.725083 -0.989104 1.229769
  H 1.853506 -0.872527 2.842157
  H 1.966000 0.896372 2.858890
  H 4.164788 -1.025348 3.703011
  H 3.144189 -0.093378 4.782748
  H 4.280810 0.723939 3.727479
  H 2.913105 -0.482133 -3.096667
  H 2.732279 1.252382 -2.897057
  H 0.322215 0.924823 -2.252939
  H 0.522199 -0.822652 -2.474074
 24
 71.046152
  C 0.768732 -0.178181 0.371749
  C 2.212253 0.049644 0.103998
  C 3.178568 -0.057036 1.343292
  C 2.534260 -0.024878 2.719475
  C 3.593598 -0.099377 3.799827
  C 2.881042 0.172411 -1.085730
  C 2.394068 0.284371 -2.506596
  C 0.894775 0.161114 -2.774477
  H 0.709264 0.276783 -3.849359
  H 3.954910 0.234010 -1.026460
  H 0.446518 -0.276962 1.380698
  H 0.115562 -0.547373 -0.390980
  H 1.459707 0.841147 0.160051
  H 3.904646 0.761140 1.274512
  H 3.730113 -0.995249 1.229597
  H 1.859144 -0.867945 2.838608
  H 1.964591 0.896090 2.847078
  H 4.167955 -1.018627 3.707194
  H 3.135590 -0.079151 4.783456
  H 4.280603 0.742549 3.723686
  H 2.909540 -0.478189 -3.097883
  H 2.733701 1.247913 -2.900015
  H 0.329583 0.933746 -2.250326
  H 0.526834 -0.818359 -2.477890
 24
 74.362779
  C 0.759595 -0.214717 0.367431
  C 2.200555 0.046496 0.103561
  C 3.180722 -0.063812 1.346417
  C 2.542228 -0.023453 2.730038
  C 3.613191 -0.083976 3.813931
  C 2.872437 0.165057 -1.088516
  C 2.391860 0.285177 -2.513567
  C 0.900906 0.170142 -2.792544
  H 0.725649 0.294421 -3.864535
  H 3.958776 0.225721 -1.023684
  H 0.428940 -0.329531 1.373881
  H 0.089305 -0.503791 -0.416376
  H 1.496361 0.841343 0.197674
  H 3.900301 0.745993 1.268664
  H 3.725241 -0.996279 1.232724
  H 1.869893 -0.870478 2.858950
  H 1.967739 0.895031 2.852027
  H 4.191668 -0.999655 3.726712
  H 3.159251 -0.058293 4.800741
  H 4.293378 0.757966 3.728837
  H 2.909106 -0.480273 -3.107155
  H 2.739055 1.254901 -2.905266
  H 0.338629 0.938479 -2.270417
  H 0.527912 -0.808133 -2.507455
 24
 77.320763
  C 0.762310 -0.248681 0.364871
  C 2.200004 0.047219 0.107885
  C 3.179894 -0.067545 1.347002
  C 2.544684 -0.021863 2.719245
  C 3.615187 -0.072983 3.802175
  C 2.876569 0.162414 -1.090652
  C 2.397839 0.286276 -2.508023
  C 0.912656 0.175266 -2.782143
  H 0.735107 0.302767 -3.852546
  H 3.947001 0.223388 -1.025582
  H 0.422739 -0.362882 1.368552
  H 0.084938 -0.471623 -0.427942
  H 1.538836 0.843782 0.225347
  H 3.908721 0.751575 1.266338
  H 3.729843 -1.015053 1.234837
  H 1.874441 -0.871953 2.851711
  H 1.960769 0.904180 2.836537
  H 4.195713 -0.984634 3.719519
  H 3.161115 -0.044027 4.788956
  H 4.291922 0.770633 3.712493
  H 2.911097 -0.478217 -3.102846
  H 2.746300 1.257649 -2.901574
  H 0.352858 0.945898 -2.254445
  H 0.540346 -0.800101 -2.498686
 24
 79.877725
  C 0.776352 -0.282472 0.345049
  C 2.209524 0.056603 0.101870
  C 3.192540 -0.067370 1.345809
  C 2.547455 -0.019072 2.729906
  C 3.617666 -0.064789 3.824411
  C 2.890494 0.166209 -1.101449
  C 2.404307 0.290429 -2.521140
  C 0.901097 0.181586 -2.787255
  H 0.714783 0.309728 -3.861458
  H 3.971828 0.228407 -1.036028
  H 0.422306 -0.386125 1.349769
  H 0.095284 -0.441697 -0.451753
  H 1.586995 0.858841 0.235124
  H 3.912561 0.737484 1.264951
  H 3.729199 -0.998405 1.234463
  H 1.877198 -0.870120 2.862008
  H 1.967289 0.895582 2.841259
  H 4.204329 -0.981005 3.747038
  H 3.158593 -0.034259 4.809725
  H 4.296300 0.784190 3.736006
  H 2.913645 -0.475299 -3.116744
  H 2.752279 1.253079 -2.915774
  H 0.341509 0.963376 -2.251047
  H 0.519508 -0.813704 -2.493477
 24
 82.064996
  C 0.773368 -0.325190 0.349699
  C 2.198998 0.062738 0.108068
  C 3.199416 -0.067706 1.357096
  C 2.557691 -0.016011 2.732915
  C 3.625390 -0.054283 3.821402
  C 2.882109 0.167144 -1.102662
  C 2.401943 0.292422 -2.520090
  C 0.911824 0.191031 -2.795503
  H 0.735503 0.319934 -3.858805
  H 3.959471 0.230772 -1.035682
  H 0.417514 -0.400263 1.348387
  H 0.072499 -0.433743 -0.452617
  H 1.611248 0.872453 0.251841
  H 3.923171 0.740514 1.270927
  H 3.737899 -1.008086 1.243464
  H 1.885248 -0.872749 2.868717
  H 1.973377 0.900556 2.841114
  H 4.211133 -0.963983 3.747672
  H 3.171662 -0.021604 4.797373
  H 4.297416 0.791234 3.729835
  H 2.911252 -0.473508 -3.111219
  H 2.755725 1.251530 -2.912685
  H 0.362574 0.960034 -2.273898
  H 0.531165 -0.781217 -2.512149
 24
 83.065840
  C 0.792841 -0.395135 0.335945
  C 2.199573 0.068452 0.109388
  C 3.202773 -0.067726 1.357717
  C 2.560406 -0.011568 2.734223
  C 3.627551 -0.038865 3.824330
  C 2.892004 0.161256 -1.107170
  C 2.409442 0.294164 -2.523450
  C 0.912457 0.211151 -2.791166
  H 0.730799 0.346932 -3.858674
  H 3.968984 0.225163 -1.037488
  H 0.414034 -0.415552 1.336089
  H 0.084145 -0.440193 -0.461082
  H 1.646662 0.889232 0.255016
  H 3.926126 0.740577 1.267927
  H 3.736211 -1.007010 1.243692
  H 1.895777 -0.866924 2.872901
  H 1.970371 0.903535 2.837339
  H 4.220332 -0.948926 3.754651
  H 3.169269 -0.003845 4.807319
  H 4.298048 0.814005 3.728291
  H 2.908264 -0.478912 -3.119552
  H 2.774479 1.252764 -2.919416
  H 0.370805 0.993676 -2.256336
  H 0.519273 -0.766275 -2.505610
