 22
 0.000000
  C 1.018808 0.115124 0.337958
  C 2.490644 0.129203 0.372765
  C 3.242424 0.603391 1.552404
  C 2.433213 1.084242 2.749364
  H 3.102547 1.402764 3.541913
  C 3.141276 -0.330011 -0.770286
  C 4.527635 -0.403252 -0.953361
  C 5.157038 -0.856934 -2.084561
  C 4.555690 -1.353129 -3.321939
  H 3.473678 -1.371090 -3.367400
  H 6.238813 -0.863547 -2.101169
  H 0.561055 0.481294 1.249125
  H 0.662849 -0.899777 0.153543
  H 0.662708 0.720162 -0.497406
  H 3.904007 1.415906 1.230342
  H 3.904284 -0.205794 1.882091
  H 1.800595 0.289628 3.138595
  H 1.800416 1.927134 2.480676
  H 2.508806 -0.656984 -1.583990
  H 5.151697 -0.074981 -0.135786
  H 4.940889 -2.359817 -3.505146
  H 4.941321 -0.752300 -4.149968
 22
 -0.207740
  C 1.014239 0.173956 0.312010
  C 2.483150 0.145246 0.353467
  C 3.237755 0.579482 1.547554
  C 2.431930 1.011419 2.763844
  H 3.112233 1.284885 3.567050
  C 3.143425 -0.306759 -0.787277
  C 4.531748 -0.323254 -0.977897
  C 5.164785 -0.804536 -2.098445
  C 4.554886 -1.413642 -3.279238
  H 3.475499 -1.480074 -3.241064
  H 6.244209 -0.738623 -2.119822
  H 0.567385 0.582582 1.207140
  H 0.631541 -0.836768 0.154409
  H 0.677791 0.744428 -0.554798
  H 3.896284 1.406933 1.249756
  H 3.912848 -0.229986 1.840369
  H 1.797801 0.206744 3.126436
  H 1.813722 1.877252 2.546680
  H 2.518100 -0.658505 -1.598283
  H 5.157875 0.086274 -0.198900
  H 4.978759 -2.410568 -3.426081
  H 4.858233 -0.854327 -4.166945
 22
 0.055835
  C 1.001279 0.231342 0.308844
  C 2.468921 0.148061 0.339265
  C 3.236599 0.539364 1.540417
  C 2.445308 0.947026 2.777796
  H 3.136419 1.188551 3.581886
  C 3.124418 -0.290904 -0.807773
  C 4.510849 -0.244502 -1.013205
  C 5.160873 -0.737905 -2.118469
  C 4.579233 -1.470384 -3.239576
  H 3.509294 -1.615969 -3.169476
  H 6.232142 -0.587539 -2.169590
  H 0.579464 0.682897 1.194773
  H 0.579116 -0.771346 0.190803
  H 0.675961 0.781562 -0.575378
  H 3.898817 1.367652 1.262133
  H 3.904971 -0.285014 1.805466
  H 1.806064 0.141594 3.122500
  H 1.835372 1.827842 2.592943
  H 2.503886 -0.658420 -1.611153
  H 5.115053 0.251625 -0.264994
  H 5.073159 -2.438233 -3.325634
  H 4.823620 -0.953723 -4.173008
 22
 0.374881
  C 0.982043 0.269082 0.329470
  C 2.445789 0.155140 0.312622
  C 3.234179 0.522370 1.514391
  C 2.463786 0.879551 2.777166
  H 3.166775 1.083663 3.577641
  C 3.098441 -0.282902 -0.834331
  C 4.485645 -0.194554 -1.032846
  C 5.159338 -0.684831 -2.123678
  C 4.614020 -1.483822 -3.217992
  H 3.553839 -1.689633 -3.131258
  H 6.221497 -0.484668 -2.180479
  H 0.613559 0.883233 1.142311
  H 0.543662 -0.727555 0.432130
  H 0.614538 0.644934 -0.623668
  H 3.876749 1.372775 1.250729
  H 3.920732 -0.298494 1.745722
  H 1.825519 0.061128 3.096200
  H 1.853623 1.769584 2.642478
  H 2.486134 -0.662238 -1.639000
  H 5.060000 0.350461 -0.292739
  H 5.163610 -2.426108 -3.279251
  H 4.821185 -0.983855 -4.167938
 22
 2.340249
  C 0.935579 0.321954 0.376952
  C 2.387744 0.208639 0.218523
  C 3.219579 0.503592 1.424601
  C 2.502283 0.813647 2.731119
  H 3.244018 0.958968 3.512174
  C 3.028438 -0.180216 -0.945803
  C 4.426806 -0.097283 -1.084038
  C 5.156348 -0.612745 -2.125429
  C 4.679379 -1.546461 -3.143998
  H 3.637090 -1.809202 -3.038665
  H 6.199901 -0.337408 -2.191425
  H 0.648324 0.939587 1.216620
  H 0.511557 -0.677670 0.529651
  H 0.470876 0.689646 -0.542133
  H 3.872915 1.352786 1.197603
  H 3.882516 -0.349398 1.601248
  H 1.853921 -0.006208 3.038162
  H 1.913372 1.728910 2.668182
  H 2.425863 -0.487006 -1.793214
  H 4.953663 0.463818 -0.310195
  H 5.287646 -2.456399 -3.107127
  H 4.866236 -1.130505 -4.137812
 22
 7.159361
  C 0.894472 0.356614 0.469182
  C 2.327399 0.283493 0.116105
  C 3.211849 0.430379 1.319615
  C 2.555524 0.709700 2.672705
  H 3.333012 0.749505 3.434184
  C 2.936482 0.001996 -1.079852
  C 4.354011 0.027776 -1.166309
  C 5.158627 -0.524357 -2.135905
  C 4.785749 -1.664170 -2.975423
  H 3.780237 -2.020384 -2.773784
  H 6.161762 -0.129352 -2.267405
  H 0.712661 0.905669 1.391467
  H 0.502703 -0.656825 0.595856
  H 0.309636 0.792146 -0.349063
  H 3.920467 1.249479 1.147616
  H 3.791825 -0.488903 1.433734
  H 1.860101 -0.079546 2.954678
  H 2.036549 1.662827 2.689358
  H 2.342867 -0.180360 -1.961996
  H 4.844301 0.556887 -0.309615
  H 5.502299 -2.474930 -2.809757
  H 4.891120 -1.407810 -4.031735
 22
 11.464601
  C 0.881946 0.354349 0.441334
  C 2.312816 0.321927 0.112990
  C 3.217886 0.424417 1.311844
  C 2.595801 0.645224 2.689163
  H 3.390765 0.646584 3.431010
  C 2.906519 0.086233 -1.109560
  C 4.308705 0.100753 -1.214598
  C 5.114522 -0.465189 -2.163612
  C 4.817716 -1.718066 -2.864482
  H 3.852756 -2.131892 -2.580687
  H 6.049023 0.025385 -2.409777
  H 0.680195 0.813328 1.399661
  H 0.492244 -0.667973 0.462364
  H 0.315393 0.861982 -0.341925
  H 3.900845 1.267103 1.160299
  H 3.831550 -0.478933 1.369183
  H 1.903151 -0.147525 2.958473
  H 2.085858 1.602175 2.753643
  H 2.303902 -0.016751 -1.997591
  H 4.798243 0.613867 -0.370854
  H 5.606576 -2.443583 -2.650026
  H 4.859175 -1.562578 -3.947195
 22
 24.372633
  C 0.806039 0.441232 0.520140
  C 2.192291 0.318491 0.066148
  C 3.209815 0.253418 1.181633
  C 2.748769 0.534568 2.619514
  H 3.598636 0.440999 3.291052
  C 2.693595 0.188970 -1.205722
  C 4.083491 0.186407 -1.367215
  C 5.033178 -0.354594 -2.172120
  C 5.026019 -1.738846 -2.671297
  H 4.171975 -2.302778 -2.301933
  H 5.868175 0.262241 -2.483850
  H 0.734365 0.812054 1.533005
  H 0.316725 -0.532944 0.488892
  H 0.238933 1.089311 -0.141823
  H 3.970933 1.031839 1.024235
  H 3.685208 -0.728144 1.186879
  H 1.997952 -0.186819 2.944353
  H 2.332102 1.532240 2.726399
  H 2.045021 0.128909 -2.067771
  H 4.524418 0.758299 -0.471998
  H 5.957295 -2.240335 -2.402276
  H 4.997690 -1.727292 -3.768601
 22
 49.449290
  C 0.736281 0.583064 0.578998
  C 2.105288 0.302438 0.084963
  C 3.204639 0.137771 1.089910
  C 2.874089 0.428405 2.563972
  H 3.754785 0.255249 3.175021
  C 2.491684 0.141477 -1.230388
  C 3.824961 0.072812 -1.533250
  C 4.874418 -0.305832 -2.272008
  C 5.235491 -1.710798 -2.568989
  H 4.529696 -2.411856 -2.128394
  H 5.590599 0.441995 -2.614468
  H 0.729701 1.013991 1.574031
  H 0.144491 -0.338535 0.587281
  H 0.215719 1.272592 -0.095428
  H 4.048863 0.862108 0.925716
  H 3.596567 -0.874843 1.038905
  H 2.095699 -0.248317 2.917286
  H 2.552641 1.446912 2.720468
  H 1.760556 0.191432 -2.024620
  H 4.352620 0.711880 -0.350422
  H 6.223348 -1.927558 -2.166542
  H 5.293839 -1.844018 -3.650802
 22
 66.353808
  C 0.722813 0.576339 0.562261
  C 2.100516 0.326872 0.089162
  C 3.217486 0.220126 1.045289
  C 2.921391 0.383308 2.537548
  H 3.824337 0.235056 3.125946
  C 2.445087 0.155421 -1.243564
  C 3.740116 -0.002081 -1.629206
  C 4.845301 -0.345673 -2.232767
  C 5.255013 -1.756842 -2.528604
  H 4.505430 -2.468756 -2.188160
  H 5.567631 0.407433 -2.531846
  H 0.691912 0.896221 1.596176
  H 0.116072 -0.327090 0.471958
  H 0.241171 1.331090 -0.058199
  H 4.000486 1.120882 0.948764
  H 3.746816 -0.728253 0.917630
  H 2.207501 -0.378757 2.838794
  H 2.508527 1.360818 2.775388
  H 1.682791 0.205415 -2.008233
  H 4.317475 0.858376 -0.083437
  H 6.207926 -1.975066 -2.049712
  H 5.391774 -1.871519 -3.603932
 22
 72.675174
  C 0.744438 0.591303 0.540933
  C 2.136239 0.306829 0.108555
  C 3.295073 0.214830 1.068850
  C 2.929355 0.421723 2.551975
  H 3.790150 0.263455 3.196394
  C 2.434777 0.113030 -1.239119
  C 3.679881 -0.070793 -1.713664
  C 4.791420 -0.364620 -2.309490
  C 5.280253 -1.760343 -2.577321
  H 4.560955 -2.501853 -2.240697
  H 5.479785 0.417215 -2.615797
  H 0.685981 0.939843 1.564740
  H 0.120299 -0.301639 0.456174
  H 0.295778 1.342731 -0.108931
  H 4.148154 1.085072 1.177163
  H 3.779790 -0.764335 0.973971
  H 2.179759 -0.314690 2.826415
  H 2.528552 1.412203 2.745493
  H 1.628357 0.160484 -1.959089
  H 4.088412 0.861049 0.190816
  H 6.233585 -1.926695 -2.078007
  H 5.439847 -1.884883 -3.647305
 22
 73.001530
  C 0.769304 0.643301 0.539755
  C 2.152853 0.343755 0.087047
  C 3.342152 0.252815 1.058774
  C 2.917022 0.400633 2.538483
  H 3.739710 0.184200 3.213052
  C 2.402405 0.110396 -1.265105
  C 3.606849 -0.107752 -1.813746
  C 4.735076 -0.381329 -2.381903
  C 5.304970 -1.763479 -2.545353
  H 4.633794 -2.516008 -2.140732
  H 5.363656 0.411260 -2.776771
  H 0.724296 1.010091 1.557249
  H 0.140692 -0.248558 0.477273
  H 0.313459 1.387997 -0.114389
  H 4.277361 1.003140 1.312151
  H 3.808327 -0.729118 0.910107
  H 2.132372 -0.318115 2.753739
  H 2.543163 1.394569 2.758925
  H 1.552365 0.121580 -1.938171
  H 3.904786 1.039345 0.326716
  H 6.268856 -1.831052 -2.044005
  H 5.465541 -1.967823 -3.603247
 22
 71.645917
  C 0.817572 0.713835 0.550032
  C 2.173319 0.364862 0.063185
  C 3.409512 0.224588 1.072932
  C 2.928963 0.311187 2.535981
  H 3.735452 0.043907 3.213485
  C 2.383983 0.077656 -1.289595
  C 3.574194 -0.154076 -1.865396
  C 4.727217 -0.387008 -2.396107
  C 5.374034 -1.741834 -2.499542
  H 4.734734 -2.516955 -2.083420
  H 5.322756 0.427289 -2.800421
  H 0.813568 1.112858 1.556708
  H 0.172678 -0.167540 0.536466
  H 0.356122 1.448286 -0.111376
  H 4.332546 0.898930 1.240464
  H 3.843528 -0.757874 0.865351
  H 2.117690 -0.391056 2.707585
  H 2.585452 1.308262 2.793845
  H 1.511417 0.061891 -1.932010
  H 3.546601 1.049651 0.245487
  H 6.329323 -1.738304 -1.974818
  H 5.569913 -1.971807 -3.546358
 22
 64.334350
  C 0.853784 0.814194 0.549347
  C 2.198546 0.407199 0.085264
  C 3.436732 0.214138 1.187512
  C 2.871002 0.310117 2.608217
  H 3.644998 0.023714 3.315803
  C 2.405945 0.007224 -1.258902
  C 3.596070 -0.267181 -1.796261
  C 4.691822 -0.447825 -2.440593
  C 5.425346 -1.752195 -2.556051
  H 4.888268 -2.552637 -2.056234
  H 5.193542 0.392234 -2.908936
  H 0.855482 1.255760 1.537645
  H 0.190152 -0.051477 0.566755
  H 0.415665 1.532508 -0.145165
  H 4.327293 0.873510 1.284957
  H 3.822464 -0.786676 0.987084
  H 2.032772 -0.366999 2.745844
  H 2.551927 1.318420 2.851723
  H 1.537936 -0.041080 -1.905346
  H 3.268988 1.007983 0.169114
  H 6.420460 -1.658753 -2.126374
  H 5.538339 -2.005101 -3.608467
 22
 22.731194
  C 0.862863 0.828589 0.553472
  C 2.306156 0.661830 0.113008
  C 3.158426 -0.215627 1.040428
  C 3.127775 0.219733 2.499614
  H 3.824918 -0.381413 3.073156
  C 2.435688 0.232858 -1.315244
  C 3.553893 -0.110208 -1.892143
  C 4.661657 -0.437289 -2.505689
  C 5.546117 -1.572361 -2.180236
  H 5.192226 -2.134250 -1.321366
  H 4.977761 0.180545 -3.342611
  H 0.814071 1.353228 1.505422
  H 0.386620 -0.139438 0.684849
  H 0.296649 1.399196 -0.174896
  H 4.188889 -0.199177 0.681155
  H 2.803453 -1.252140 0.973333
  H 2.141886 0.088959 2.935540
  H 3.418585 1.260478 2.605320
  H 1.516537 0.215555 -1.890974
  H 2.778680 1.659326 0.094143
  H 6.559294 -1.212347 -1.992035
  H 5.615391 -2.218970 -3.057308
