 20
 0.000000
  C 0.979886 0.149825 0.434464
  C 2.442207 0.127398 0.357237
  H 3.035681 0.468383 1.191991
  C 3.047713 -0.335485 -0.789113
  C 4.428126 -0.411570 -0.974312
  C 5.118195 -0.865667 -2.099664
  C 4.629736 -1.386943 -3.402970
  C 3.144400 -1.504153 -3.708169
  H 3.018777 -1.904681 -4.708227
  O 6.434545 -0.860451 -2.075472
  H 0.603838 0.525629 1.380869
  H 0.586901 -0.856746 0.276960
  H 0.574237 0.761797 -0.373743
  H 2.396161 -0.657819 -1.583641
  H 5.044981 -0.078346 -0.146495
  H 5.093665 -2.372679 -3.523867
  H 5.099416 -0.760963 -4.170505
  H 2.660017 -0.531613 -3.674996
  H 2.654349 -2.181587 -3.013611
  H 6.821001 -0.528469 -1.242631
 20
 1.425636
  C 1.018270 0.372974 0.493305
  C 2.383137 -0.137267 0.370339
  H 2.964436 -0.272351 1.273080
  C 2.954861 -0.449196 -0.843322
  C 4.338631 -0.512140 -0.999070
  C 5.095822 -0.785200 -2.139425
  C 4.668305 -1.339450 -3.450255
  C 3.214801 -1.711552 -3.691287
  H 3.139412 -2.184436 -4.667381
  O 6.393062 -0.583060 -2.109634
  H 0.770609 0.636977 1.515820
  H 0.289417 -0.351497 0.123228
  H 0.911653 1.250013 -0.148164
  H 2.303076 -0.583074 -1.690957
  H 4.911425 -0.217920 -0.125068
  H 5.298120 -2.222412 -3.610643
  H 4.996654 -0.627451 -4.215929
  H 2.574645 -0.834672 -3.710115
  H 2.856966 -2.420312 -2.950174
  H 6.740727 -0.230994 -1.268226
 20
 9.515197
  C 1.113106 0.531022 0.497096
  C 2.300189 -0.316742 0.386674
  H 2.706514 -0.758813 1.288029
  C 2.907830 -0.598930 -0.831745
  C 4.277359 -0.510121 -1.015448
  C 5.047010 -0.737401 -2.155131
  C 4.657265 -1.326538 -3.465985
  C 3.238976 -1.823750 -3.690526
  H 3.184580 -2.267708 -4.681003
  O 6.321797 -0.413643 -2.142091
  H 0.881221 0.767861 1.529826
  H 0.235223 0.064209 0.044182
  H 1.297758 1.448851 -0.064018
  H 2.262034 -0.838200 -1.664116
  H 4.828236 -0.120717 -0.163284
  H 5.361760 -2.147793 -3.639399
  H 4.907396 -0.581746 -4.230502
  H 2.521024 -1.009282 -3.666139
  H 2.966691 -2.589335 -2.969585
  H 6.640098 -0.022409 -1.307129
 20
 22.231472
  C 1.257578 0.651863 0.528550
  C 2.226377 -0.435130 0.398364
  H 2.388548 -1.095393 1.239741
  C 2.897520 -0.712429 -0.817345
  C 4.226559 -0.457158 -1.029597
  C 5.010760 -0.681385 -2.166495
  C 4.656174 -1.314655 -3.465057
  C 3.269867 -1.899347 -3.684424
  H 3.237761 -2.338379 -4.679095
  O 6.262760 -0.281833 -2.164521
  H 1.005196 0.841895 1.566554
  H 0.327604 0.423319 -0.004029
  H 1.663206 1.550284 0.062794
  H 2.291864 -1.143005 -1.605584
  H 4.745535 0.026948 -0.208747
  H 5.410591 -2.091071 -3.633830
  H 4.855737 -0.562233 -4.236064
  H 2.501977 -1.132142 -3.647452
  H 3.053826 -2.690376 -2.971775
  H 6.558179 0.147552 -1.339572
 20
 22.977506
  C 1.411118 0.750972 0.574969
  C 2.141231 -0.492606 0.348925
  H 2.024715 -1.289818 1.072350
  C 2.906616 -0.783116 -0.806625
  C 4.188099 -0.360112 -1.062234
  C 4.967067 -0.625931 -2.193152
  C 4.628782 -1.331290 -3.459599
  C 3.264896 -1.973127 -3.659430
  H 3.250732 -2.442033 -4.640814
  O 6.216766 -0.208878 -2.215025
  H 1.102157 0.863896 1.610072
  H 0.504191 0.711417 -0.040122
  H 1.942092 1.635517 0.222635
  H 2.413359 -1.436616 -1.515369
  H 4.667439 0.222117 -0.284393
  H 5.406857 -2.089014 -3.600197
  H 4.804128 -0.601955 -4.258001
  H 2.468211 -1.234341 -3.641992
  H 3.079118 -2.754242 -2.928179
  H 6.505354 0.267557 -1.414872
 20
 10.285158
  C 1.588953 0.819439 0.596989
  C 2.078803 -0.520477 0.286823
  H 1.684776 -1.336590 0.880973
  C 2.899117 -0.858990 -0.780319
  C 4.136018 -0.311841 -1.095308
  C 4.918131 -0.597235 -2.212541
  C 4.590025 -1.345928 -3.456716
  C 3.247745 -2.039785 -3.628150
  H 3.227641 -2.500969 -4.612959
  O 6.150293 -0.132501 -2.266374
  H 1.251190 0.907185 1.625389
  H 0.712504 0.986452 -0.041008
  H 2.280079 1.615504 0.329506
  H 2.542872 -1.690506 -1.374793
  H 4.565322 0.360759 -0.362849
  H 5.395903 -2.073373 -3.600821
  H 4.722670 -0.621377 -4.268325
  H 2.422814 -1.335196 -3.578707
  H 3.110807 -2.836658 -2.902495
  H 6.430766 0.381497 -1.486419
 20
 3.057337
  C 1.780572 0.857203 0.614633
  C 2.017152 -0.530904 0.223122
  H 1.375303 -1.274558 0.676564
  C 2.886610 -0.953055 -0.756570
  C 4.074357 -0.314409 -1.122697
  C 4.872084 -0.579286 -2.235153
  C 4.556774 -1.353502 -3.464690
  C 3.235847 -2.090771 -3.602714
  H 3.182425 -2.511178 -4.603996
  O 6.066614 -0.035429 -2.314858
  H 1.467237 0.933936 1.653016
  H 0.937642 1.223777 0.019295
  H 2.612122 1.519809 0.394994
  H 2.648879 -1.893062 -1.231169
  H 4.447949 0.436626 -0.436529
  H 5.386410 -2.050722 -3.622523
  H 4.647650 -0.630095 -4.285341
  H 2.389083 -1.422252 -3.476521
  H 3.162210 -2.920483 -2.904994
  H 6.331555 0.502494 -1.544813
 20
 1.993116
  C 1.829530 0.808042 0.532602
  C 2.056008 -0.597569 0.200767
  H 1.352876 -1.307745 0.613590
  C 3.012479 -1.064111 -0.664203
  C 4.129196 -0.335620 -1.101779
  C 4.891302 -0.568462 -2.244821
  C 4.550552 -1.404608 -3.425475
  C 3.130660 -1.924682 -3.596333
  H 3.022814 -2.308269 -4.607656
  O 6.031456 0.061260 -2.410869
  H 1.657778 0.928525 1.601879
  H 0.899059 1.130391 0.056006
  H 2.622196 1.457410 0.178553
  H 2.916009 -2.085139 -1.001435
  H 4.476663 0.459712 -0.452348
  H 5.253158 -2.246638 -3.437047
  H 4.826392 -0.802155 -4.297510
  H 2.400492 -1.133107 -3.455129
  H 2.906421 -2.742397 -2.920078
  H 6.324248 0.604341 -1.654308
 20
 6.772325
  C 1.822699 0.718512 0.199986
  C 2.113585 -0.718579 0.195388
  H 1.437165 -1.379265 0.718786
  C 3.161185 -1.222613 -0.511022
  C 4.260954 -0.448031 -0.960933
  C 4.932768 -0.563704 -2.171012
  C 4.461378 -1.256258 -3.399595
  C 3.015020 -1.720782 -3.476346
  H 2.824487 -2.094217 -4.478111
  O 6.074478 0.057611 -2.363285
  H 1.482828 1.065879 1.170891
  H 1.019209 0.925431 -0.511940
  H 2.691750 1.250713 -0.179330
  H 3.187086 -2.286185 -0.714908
  H 4.722416 0.185019 -0.212659
  H 5.130357 -2.109410 -3.559936
  H 4.674943 -0.573842 -4.228198
  H 2.330005 -0.897720 -3.288947
  H 2.799782 -2.523644 -2.781528
  H 6.446459 0.499993 -1.576710
 20
 16.701013
  C 1.889582 0.638327 -0.042507
  C 2.104264 -0.813377 0.138512
  H 1.398172 -1.386486 0.732235
  C 3.187610 -1.345653 -0.441579
  C 4.263188 -0.478548 -0.876262
  C 4.926392 -0.516288 -2.096719
  C 4.419675 -1.160150 -3.347372
  C 2.959229 -1.605856 -3.391670
  H 2.748094 -1.982682 -4.375557
  O 6.081763 0.077495 -2.265834
  H 1.520191 1.142678 0.839285
  H 1.251708 0.859416 -0.902518
  H 2.884041 0.966504 -0.441299
  H 3.314141 -2.418702 -0.554162
  H 4.819106 -0.052230 -0.073513
  H 5.068893 -2.005047 -3.540810
  H 4.627565 -0.461360 -4.147366
  H 2.289734 -0.760712 -3.210300
  H 2.743746 -2.381937 -2.665399
  H 6.463369 0.483764 -1.454821
 20
 26.127098
  C 1.989064 0.598592 -0.177324
  C 2.059014 -0.850474 0.060720
  H 1.317784 -1.357802 0.654528
  C 3.170113 -1.430679 -0.422618
  C 4.242181 -0.508604 -0.805550
  C 4.899313 -0.488494 -2.038185
  C 4.406282 -1.109013 -3.298783
  C 2.953537 -1.565438 -3.340914
  H 2.725995 -1.931172 -4.342048
  O 6.040026 0.139618 -2.188636
  H 1.573302 1.193900 0.628568
  H 1.578148 0.886558 -1.146889
  H 3.095844 0.741375 -0.480569
  H 3.330714 -2.492731 -0.509163
  H 4.873454 -0.249821 0.041819
  H 5.064176 -1.958670 -3.504080
  H 4.601777 -0.398555 -4.108491
  H 2.279585 -0.739606 -3.130359
  H 2.757107 -2.369575 -2.643935
  H 6.403130 0.558341 -1.380141
 20
 36.270617
  C 1.894133 0.503407 -0.242841
  C 2.060710 -0.889432 0.073371
  H 1.326330 -1.408598 0.670552
  C 3.205657 -1.442984 -0.356213
  C 4.206269 -0.413074 -0.777827
  C 4.897608 -0.474817 -2.026097
  C 4.380768 -1.086560 -3.272544
  C 2.906584 -1.460801 -3.319206
  H 2.673769 -1.848378 -4.307203
  O 6.064367 0.090881 -2.174624
  H 1.446517 1.153319 0.494512
  H 1.677251 0.786610 -1.263105
  H 3.408148 0.519975 -0.671046
  H 3.467016 -2.484461 -0.295932
  H 4.871577 -0.173908 0.056644
  H 4.992013 -1.976315 -3.465597
  H 4.619243 -0.399513 -4.090597
  H 2.275662 -0.594844 -3.147469
  H 2.658809 -2.228339 -2.594274
  H 6.451013 0.492283 -1.372262
 20
 33.119670
  C 1.733557 0.454432 -0.220100
  C 2.070368 -0.887378 0.065138
  H 1.392272 -1.481212 0.664613
  C 3.254714 -1.384170 -0.358869
  C 4.252733 -0.352633 -0.795164
  C 4.950243 -0.495803 -2.053284
  C 4.399229 -1.132377 -3.268561
  C 2.904433 -1.400107 -3.307956
  H 2.647030 -1.822781 -4.276244
  O 6.141402 -0.012967 -2.209170
  H 1.166913 1.024052 0.501616
  H 1.639607 0.797192 -1.234666
  H 3.576343 0.562584 -0.755917
  H 3.541986 -2.417880 -0.281779
  H 4.948222 -0.149525 0.030302
  H 4.945915 -2.073921 -3.410891
  H 4.691540 -0.509534 -4.118878
  H 2.339698 -0.481064 -3.186920
  H 2.598213 -2.106284 -2.542503
  H 6.548735 0.402817 -1.422596
 20
 27.303115
  C 1.580031 0.385785 -0.204078
  C 2.085415 -0.877991 0.063611
  H 1.485309 -1.544360 0.671678
  C 3.313874 -1.302865 -0.358596
  C 4.300781 -0.280606 -0.822746
  C 5.005430 -0.526837 -2.077954
  C 4.419664 -1.197188 -3.251817
  C 2.905162 -1.331325 -3.297843
  H 2.618565 -1.798516 -4.236084
  O 6.225673 -0.142816 -2.238747
  H 0.858088 0.829605 0.462150
  H 1.659583 0.844456 -1.171540
  H 3.701678 0.651386 -0.860921
  H 3.638741 -2.323213 -0.242732
  H 5.014916 -0.095357 -0.012350
  H 4.879732 -2.191271 -3.315800
  H 4.779940 -0.668147 -4.140398
  H 2.426407 -0.358817 -3.250562
  H 2.529713 -1.947242 -2.487092
  H 6.655257 0.297556 -1.476570
 20
 24.303790
  C 1.480527 0.298693 -0.166365
  C 2.089466 -0.886286 0.120724
  H 1.602760 -1.560112 0.811853
  C 3.327720 -1.267416 -0.375591
  C 4.302124 -0.241970 -0.855500
  C 5.020201 -0.528479 -2.095308
  C 4.426880 -1.229099 -3.247288
  C 2.906454 -1.250014 -3.329250
  H 2.596787 -1.890678 -4.148143
  O 6.254139 -0.200325 -2.239193
  H 0.648049 0.648877 0.416858
  H 1.685420 0.838876 -1.072847
  H 3.740054 0.701774 -0.912346
  H 3.660669 -2.290017 -0.298194
  H 5.018692 -0.060258 -0.045249
  H 4.810648 -2.256585 -3.231887
  H 4.851026 -0.787844 -4.154951
  H 2.515032 -0.251489 -3.518313
  H 2.464922 -1.632711 -2.416181
  H 6.682388 0.267297 -1.491222
