 28
 0.000000
  C 0.972691 0.142027 0.386167
  C 2.446771 0.143977 0.394384
  C 3.227541 0.607816 1.561809
  C 2.452247 1.095542 2.782144
  C 3.407694 1.534445 3.887629
  C 3.070775 -0.318419 -0.760623
  C 4.454315 -0.404612 -0.970697
  C 5.109776 -0.856360 -2.090328
  C 4.618737 -1.377276 -3.379472
  C 3.134046 -1.503548 -3.685883
  H 3.000033 -1.906654 -4.683109
  H 6.190744 -0.848376 -2.081052
  H 0.532538 0.505409 1.307370
  H 0.605097 -0.869157 0.205664
  H 0.604294 0.758500 -0.436064
  H 3.888522 1.417023 1.230301
  H 3.885688 -0.209537 1.878534
  H 1.813843 0.298861 3.168417
  H 1.816686 1.941420 2.513732
  H 4.042089 0.710079 4.205693
  H 2.848178 1.880381 4.753243
  H 4.044943 2.349692 3.552234
  H 2.414701 -0.635105 -1.553591
  H 5.082264 -0.075782 -0.152307
  H 5.084689 -2.363947 -3.503207
  H 5.081979 -0.751659 -4.154042
  H 2.647859 -0.531143 -3.649260
  H 2.650538 -2.178868 -2.983370
 28
 0.112781
  C 0.970592 0.303908 0.339677
  C 2.432995 0.145584 0.397054
  C 3.209015 0.491905 1.604404
  C 2.457800 1.123172 2.772631
  C 3.421153 1.462643 3.906013
  C 3.052540 -0.329343 -0.757798
  C 4.434142 -0.351449 -0.992323
  C 5.075089 -0.702252 -2.156653
  C 4.601012 -1.276828 -3.421341
  C 3.169604 -1.762861 -3.579778
  H 3.076781 -2.284197 -4.529720
  H 6.144685 -0.526115 -2.166344
  H 0.524824 0.562982 1.290975
  H 0.502042 -0.597356 -0.054514
  H 0.741808 1.092333 -0.381733
  H 4.029207 1.160117 1.320123
  H 3.701006 -0.422529 1.960005
  H 1.700777 0.436769 3.155726
  H 1.959924 2.038205 2.447215
  H 3.919901 0.569153 4.274411
  H 2.884288 1.913293 4.736761
  H 4.180016 2.168101 3.575526
  H 2.397560 -0.643538 -1.553186
  H 5.074732 0.011907 -0.200323
  H 5.288972 -2.100519 -3.655881
  H 4.821911 -0.535780 -4.203116
  H 2.465052 -0.935602 -3.597220
  H 2.901505 -2.458548 -2.789307
 28
 2.727341
  C 1.034989 0.386474 0.271804
  C 2.458865 0.051138 0.438226
  C 3.194748 0.362330 1.678887
  C 2.477048 1.196162 2.735936
  C 3.398103 1.461798 3.921830
  C 3.087287 -0.507810 -0.673340
  C 4.445788 -0.378732 -0.986011
  C 5.013045 -0.557123 -2.223044
  C 4.519502 -1.151115 -3.472303
  C 3.201189 -1.908721 -3.515159
  H 3.106492 -2.395888 -4.483541
  H 6.028167 -0.191773 -2.321272
  H 0.543968 0.672956 1.193739
  H 0.490480 -0.421695 -0.209403
  H 0.996811 1.232720 -0.422762
  H 4.141959 0.850712 1.430459
  H 3.489985 -0.594451 2.129413
  H 1.589284 0.675047 3.098829
  H 2.164584 2.150725 2.307945
  H 3.712086 0.530351 4.387892
  H 2.885813 2.055415 4.672094
  H 4.285832 2.007081 3.612424
  H 2.439366 -0.933986 -1.422181
  H 5.088842 0.059683 -0.233087
  H 5.323261 -1.815095 -3.818089
  H 4.506505 -0.352633 -4.227020
  H 2.348675 -1.241529 -3.410673
  H 3.163926 -2.678423 -2.746877
 28
 7.348326
  C 1.142650 0.422472 0.178507
  C 2.509193 -0.037979 0.479126
  C 3.194201 0.282585 1.743000
  C 2.503226 1.256237 2.693090
  C 3.361088 1.492201 3.932666
  C 3.153402 -0.685541 -0.575627
  C 4.474724 -0.430109 -0.964512
  C 4.923835 -0.454480 -2.257797
  C 4.399475 -1.056678 -3.493975
  C 3.193179 -1.981817 -3.465745
  H 3.064256 -2.420121 -4.452859
  H 5.868122 0.050940 -2.426909
  H 0.614973 0.820728 1.036312
  H 0.551904 -0.352641 -0.304839
  H 1.272628 1.218820 -0.562825
  H 4.206287 0.643595 1.533476
  H 3.350973 -0.669090 2.268703
  H 1.537657 0.860844 3.011501
  H 2.335292 2.209836 2.190002
  H 3.533228 0.562588 4.470122
  H 2.865566 2.184247 4.609478
  H 4.325820 1.917612 3.665364
  H 2.521446 -1.215506 -1.271236
  H 5.119577 0.054327 -0.243253
  H 5.250152 -1.602394 -3.924854
  H 4.221205 -0.244098 -4.209840
  H 2.276993 -1.443760 -3.236317
  H 3.334216 -2.792260 -2.755777
 28
 13.376775
  C 1.278064 0.427813 0.069753
  C 2.572155 -0.120644 0.511514
  C 3.199345 0.225093 1.796158
  C 2.522828 1.298217 2.644489
  C 3.311155 1.539598 3.928031
  C 3.238159 -0.843334 -0.483027
  C 4.520066 -0.491779 -0.937482
  C 4.831611 -0.382523 -2.262695
  C 4.263993 -0.972336 -3.489148
  C 3.151702 -2.006790 -3.417661
  H 2.970335 -2.395244 -4.417502
  H 5.712926 0.211420 -2.479053
  H 0.719234 0.926827 0.851649
  H 0.661513 -0.321392 -0.422090
  H 1.561414 1.155948 -0.700549
  H 4.248103 0.495443 1.634088
  H 3.249962 -0.704898 2.379256
  H 1.510713 0.991956 2.911815
  H 2.463244 2.231908 2.083235
  H 3.374683 0.631389 4.523174
  H 2.826538 2.302908 4.531590
  H 4.321616 1.877050 3.708472
  H 2.625016 -1.447432 -1.134846
  H 5.176247 0.008024 -0.236887
  H 5.124605 -1.423333 -4.001253
  H 3.958289 -0.151600 -4.149056
  H 2.217395 -1.571428 -3.072870
  H 3.429931 -2.842597 -2.781341
 28
 19.979111
  C 1.414967 0.503623 -0.040117
  C 2.622274 -0.140290 0.514342
  C 3.211541 0.217752 1.811108
  C 2.525238 1.313482 2.620811
  C 3.264557 1.549825 3.934092
  C 3.279320 -0.943972 -0.421686
  C 4.540553 -0.569451 -0.922820
  C 4.741419 -0.352407 -2.247363
  C 4.121192 -0.904648 -3.471295
  C 3.142496 -2.065110 -3.379047
  H 2.938273 -2.431470 -4.383223
  H 5.592448 0.276886 -2.488205
  H 0.861304 1.096243 0.675397
  H 0.758586 -0.207073 -0.537760
  H 1.837244 1.150116 -0.823212
  H 4.267978 0.471931 1.677410
  H 3.229682 -0.702181 2.409771
  H 1.497347 1.032505 2.851583
  H 2.509674 2.241822 2.047425
  H 3.238051 0.662559 4.562280
  H 2.804018 2.364620 4.486171
  H 4.303888 1.812063 3.754825
  H 2.659289 -1.572326 -1.048613
  H 5.227055 -0.102815 -0.227041
  H 4.966996 -1.213657 -4.093024
  H 3.658353 -0.080112 -4.026936
  H 2.190289 -1.759444 -2.955416
  H 3.557902 -2.884682 -2.802644
 28
 27.379243
  C 1.571661 0.451032 -0.137030
  C 2.720679 -0.191924 0.523105
  C 3.251847 0.203154 1.833196
  C 2.585586 1.380235 2.536039
  C 3.160684 1.561290 3.939068
  C 3.395736 -1.062869 -0.351926
  C 4.614169 -0.617336 -0.922253
  C 4.661794 -0.296504 -2.240264
  C 3.993661 -0.848346 -3.441945
  C 3.017027 -2.003445 -3.309604
  H 2.771258 -2.369526 -4.304831
  H 5.465551 0.384311 -2.517359
  H 0.974947 1.080119 0.504162
  H 0.950602 -0.257078 -0.682047
  H 2.092070 1.054159 -0.898577
  H 4.329188 0.385746 1.746067
  H 3.183805 -0.680466 2.478336
  H 1.512842 1.212961 2.618882
  H 2.748810 2.294216 1.965231
  H 2.991701 0.676975 4.547092
  H 2.689703 2.402829 4.434884
  H 4.229977 1.750993 3.900800
  H 2.783065 -1.726895 -0.947253
  H 5.322060 -0.134671 -0.259137
  H 4.819465 -1.173133 -4.083240
  H 3.519434 -0.027968 -3.986184
  H 2.082918 -1.694559 -2.844981
  H 3.456023 -2.827565 -2.753701
 28
 35.075135
  C 1.651073 0.386674 -0.207689
  C 2.697074 -0.320690 0.550940
  C 3.190630 0.096537 1.867780
  C 2.580972 1.358098 2.473939
  C 3.217429 1.662095 3.826589
  C 3.407671 -1.198364 -0.295998
  C 4.619782 -0.689319 -0.853746
  C 4.576163 -0.226931 -2.130977
  C 3.922307 -0.724197 -3.368081
  C 2.993046 -1.930040 -3.305489
  H 2.701530 -2.200302 -4.317854
  H 5.358488 0.485614 -2.375973
  H 1.030814 1.055898 0.370785
  H 1.049360 -0.276391 -0.828098
  H 2.289314 0.944639 -0.920340
  H 4.281699 0.188227 1.831791
  H 3.015173 -0.744511 2.549288
  H 1.511115 1.230110 2.613633
  H 2.742982 2.206202 1.806499
  H 3.001544 0.875089 4.544270
  H 2.829464 2.597256 4.225838
  H 4.297306 1.758792 3.738120
  H 2.830949 -1.891799 -0.892711
  H 5.294959 -0.194149 -0.165654
  H 4.757855 -0.976142 -4.028582
  H 3.410049 0.109978 -3.854548
  H 2.081346 -1.712413 -2.759029
  H 3.494635 -2.790875 -2.867994
 28
 45.813367
  C 1.860819 0.447425 -0.317987
  C 2.778113 -0.307365 0.541366
  C 3.213373 0.102007 1.871748
  C 2.520315 1.318490 2.482659
  C 3.132663 1.659927 3.837429
  C 3.493571 -1.251869 -0.244699
  C 4.660493 -0.719467 -0.881062
  C 4.486290 -0.186832 -2.112030
  C 3.807991 -0.683439 -3.342058
  C 2.893130 -1.896712 -3.252723
  H 2.588732 -2.179845 -4.257799
  H 5.247880 0.546135 -2.378947
  H 1.320593 1.252198 0.160557
  H 1.207645 -0.165782 -0.940695
  H 2.605001 0.817397 -1.079118
  H 4.299332 0.256629 1.855894
  H 3.071684 -0.762771 2.531895
  H 1.457048 1.115250 2.617848
  H 2.626821 2.178586 1.820370
  H 3.025488 0.831606 4.535341
  H 2.639287 2.526401 4.267544
  H 4.191356 1.890854 3.739540
  H 2.914349 -1.997323 -0.778233
  H 5.437135 -0.316012 -0.243105
  H 4.631485 -0.932527 -4.024657
  H 3.268444 0.147479 -3.810048
  H 1.985495 -1.686648 -2.690946
  H 3.412646 -2.746336 -2.819226
 28
 60.420958
  C 2.015407 0.445261 -0.383463
  C 2.833494 -0.316705 0.526475
  C 3.203659 0.070440 1.888148
  C 2.595328 1.368710 2.409396
  C 3.044688 1.633819 3.841755
  C 3.578504 -1.293513 -0.210217
  C 4.684838 -0.691740 -0.905229
  C 4.345130 -0.083746 -2.076669
  C 3.640642 -0.608850 -3.299527
  C 2.880312 -1.926465 -3.189755
  H 2.525590 -2.211010 -4.180576
  H 5.069842 0.676261 -2.372962
  H 1.530634 1.329195 0.010464
  H 1.394156 -0.105228 -1.087796
  H 2.874721 0.684160 -1.181192
  H 4.297798 0.102118 1.962430
  H 2.901537 -0.750301 2.548077
  H 1.505299 1.308929 2.386788
  H 2.909262 2.201608 1.780661
  H 2.721003 0.833172 4.507214
  H 2.620065 2.564337 4.205278
  H 4.126721 1.712759 3.901111
  H 3.007437 -2.064182 -0.716528
  H 5.493875 -0.283234 -0.314650
  H 4.428511 -0.732303 -4.047795
  H 2.965659 0.163734 -3.688645
  H 2.003096 -1.850119 -2.549411
  H 3.529036 -2.719972 -2.837421
 28
 72.546574
  C 2.044439 0.396011 -0.369296
  C 2.800258 -0.320908 0.531449
  C 3.189323 0.067229 1.900455
  C 2.573199 1.363935 2.418977
  C 3.049874 1.652276 3.838317
  C 3.567992 -1.319374 -0.213612
  C 4.652804 -0.711438 -0.892777
  C 4.288685 -0.019467 -2.060168
  C 3.604174 -0.565263 -3.306117
  C 2.854552 -1.882190 -3.186332
  H 2.508896 -2.180707 -4.174610
  H 5.015844 0.735980 -2.343270
  H 1.565826 1.298723 -0.025167
  H 1.500263 -0.101238 -1.161256
  H 3.194417 0.584854 -1.384550
  H 4.282368 0.115403 1.959231
  H 2.898425 -0.752650 2.567070
  H 1.485249 1.288150 2.418380
  H 2.862448 2.193616 1.772509
  H 2.753734 0.856518 4.518516
  H 2.618206 2.582110 4.200438
  H 4.132974 1.747575 3.873276
  H 2.987155 -2.083837 -0.716099
  H 5.459723 -0.303436 -0.296572
  H 4.404660 -0.705204 -4.038872
  H 2.941805 0.200309 -3.714827
  H 1.971504 -1.801933 -2.556322
  H 3.506116 -2.668986 -2.816162
 28
 61.915362
  C 1.890982 0.386825 -0.260298
  C 2.711514 -0.282816 0.552468
  C 3.191060 0.100945 1.912482
  C 2.551061 1.355707 2.491499
  C 3.104393 1.636725 3.886629
  C 3.466289 -1.236177 -0.254752
  C 4.548879 -0.650233 -0.893092
  C 4.272532 0.041630 -2.132062
  C 3.686760 -0.612026 -3.403096
  C 2.902488 -1.888612 -3.231290
  H 2.619163 -2.265528 -4.211111
  H 5.057724 0.735272 -2.419426
  H 1.394862 1.278783 0.103127
  H 1.396914 -0.068265 -1.101018
  H 3.396430 0.626845 -1.657069
  H 4.275991 0.205347 1.903768
  H 2.977185 -0.741324 2.577069
  H 1.470173 1.233829 2.552280
  H 2.766309 2.210583 1.840877
  H 2.876380 0.818205 4.569251
  H 2.664984 2.545249 4.295735
  H 4.186070 1.771266 3.864601
  H 2.876619 -2.000364 -0.756325
  H 5.361033 -0.248715 -0.270967
  H 4.541325 -0.833477 -4.050265
  H 3.084063 0.127654 -3.925558
  H 1.980116 -1.731899 -2.678830
  H 3.499739 -2.659523 -2.748662
 28
 48.412842
  C 1.613943 0.272463 -0.040198
  C 2.629065 -0.296631 0.631836
  C 3.210310 0.126088 1.938362
  C 2.535114 1.338765 2.575830
  C 3.179752 1.665523 3.916997
  C 3.375217 -1.139326 -0.298914
  C 4.460742 -0.547440 -0.921312
  C 4.303063 0.091638 -2.236927
  C 3.869065 -0.669691 -3.503799
  C 2.934917 -1.855330 -3.339895
  H 2.797489 -2.328553 -4.309380
  H 5.152330 0.724478 -2.481401
  H 1.051348 1.085684 0.383555
  H 1.192325 -0.163742 -0.928739
  H 3.456621 0.745688 -1.918362
  H 4.279004 0.318241 1.832426
  H 3.118097 -0.729493 2.616505
  H 1.474402 1.137164 2.730759
  H 2.629256 2.203286 1.915805
  H 3.048006 0.846263 4.621661
  H 2.727791 2.555573 4.348049
  H 4.244909 1.850845 3.802386
  H 2.785174 -1.877413 -0.831068
  H 5.296512 -0.207521 -0.318853
  H 4.786630 -1.030119 -3.975001
  H 3.421883 0.054671 -4.183290
  H 1.949495 -1.551387 -2.993601
  H 3.355353 -2.604438 -2.675308
 28
 39.468514
  C 1.474963 0.379453 0.066299
  C 2.575687 -0.170416 0.613072
  C 3.213234 0.194266 1.910844
  C 2.517935 1.315842 2.675950
  C 3.223099 1.575612 4.003493
  C 3.278229 -0.946260 -0.393593
  C 4.395134 -0.406744 -0.990984
  C 4.384190 0.070223 -2.380332
  C 3.984794 -0.804776 -3.580249
  C 2.993930 -1.933276 -3.358845
  H 2.830285 -2.445934 -4.304904
  H 5.308967 0.592712 -2.619415
  H 0.924204 1.161191 0.557228
  H 1.040589 -0.005598 -0.839800
  H 3.600571 0.841532 -2.216609
  H 4.261455 0.456796 1.759720
  H 3.209740 -0.710775 2.525924
  H 1.480459 1.044794 2.873591
  H 2.528938 2.231818 2.083389
  H 3.195245 0.691961 4.637158
  H 2.737145 2.388626 4.537360
  H 4.263400 1.850826 3.844371
  H 2.690044 -1.696797 -0.907645
  H 5.148561 0.044833 -0.354596
  H 4.911857 -1.244171 -3.958213
  H 3.604695 -0.141047 -4.355823
  H 2.026318 -1.559961 -3.031101
  H 3.376207 -2.667417 -2.656253
 28
 35.597761
  C 1.307799 0.406069 0.232397
  C 2.473518 -0.123985 0.657042
  C 3.178249 0.205799 1.925947
  C 2.536505 1.307778 2.760050
  C 3.353629 1.557271 4.023904
  C 3.088400 -0.835647 -0.444369
  C 4.251548 -0.332119 -1.003695
  C 4.244140 0.119233 -2.429842
  C 4.138388 -0.885303 -3.596875
  C 3.163994 -2.039761 -3.471200
  H 3.277765 -2.682132 -4.339831
  H 5.107312 0.753819 -2.613341
  H 0.825209 1.211131 0.754786
  H 0.841573 0.062757 -0.677672
  H 3.339053 0.741983 -2.432295
  H 4.219527 0.473656 1.743661
  H 3.200702 -0.721995 2.506538
  H 1.526300 1.028200 3.046198
  H 2.485016 2.231631 2.174839
  H 3.410051 0.657362 4.624703
  H 2.897780 2.336324 4.627149
  H 4.369586 1.871019 3.778577
  H 2.427465 -1.421348 -1.068793
  H 4.983386 0.139158 -0.366498
  H 5.138303 -1.301702 -3.739982
  H 3.891822 -0.303379 -4.478173
  H 2.130846 -1.702392 -3.460158
  H 3.372011 -2.646113 -2.593032
