 20
 0.000000
  C 0.965413 0.190335 0.524656
  C 2.410667 0.106456 0.318559
  H 3.061673 0.429079 1.121735
  C 2.971875 -0.363062 -0.849416
  C 4.358517 -0.427150 -1.009947
  C 5.108331 -0.864455 -2.102905
  C 4.667540 -1.391458 -3.418434
  C 3.191819 -1.525689 -3.751502
  H 3.105241 -1.928884 -4.758730
  O 6.415931 -0.832679 -2.026271
  H 0.709521 0.583665 1.502502
  H 0.507318 -0.793249 0.396534
  H 0.508643 0.812263 -0.248871
  H 2.310949 -0.679873 -1.638412
  H 4.938541 -0.085324 -0.158285
  H 5.153869 -2.367646 -3.528025
  H 5.152888 -0.760262 -4.171709
  H 2.690566 -0.562246 -3.740215
  H 2.691531 -2.215835 -3.078325
  H 6.778379 -0.496188 -1.184338
 20
 8.616341
  C 0.959506 0.194984 0.535816
  C 2.400742 0.107767 0.322278
  H 3.057207 0.428273 1.120935
  C 2.952382 -0.362675 -0.848225
  C 4.340089 -0.430194 -1.016984
  C 5.070344 -0.866234 -2.107219
  C 4.655397 -1.390629 -3.416333
  C 3.184776 -1.531288 -3.765065
  H 3.111606 -1.934374 -4.772080
  O 6.536526 -0.827819 -2.015179
  H 0.709203 0.588701 1.514912
  H 0.498201 -0.787509 0.408678
  H 0.499975 0.817292 -0.236136
  H 2.286013 -0.677531 -1.633043
  H 4.926763 -0.090175 -0.168927
  H 5.149726 -2.364762 -3.521124
  H 5.148608 -0.757446 -4.164732
  H 2.679135 -0.569914 -3.759480
  H 2.680312 -2.223970 -3.097460
  H 6.874076 -0.490422 -1.171575
 20
 25.795891
  C 0.973529 0.196962 0.539292
  C 2.408329 0.107038 0.323156
  H 3.068800 0.423938 1.116408
  C 2.944953 -0.358074 -0.835239
  C 4.320925 -0.428346 -1.009289
  C 4.990373 -0.867423 -2.109318
  C 4.645729 -1.392321 -3.420945
  C 3.179164 -1.543343 -3.792867
  H 3.117890 -1.945568 -4.798988
  O 6.614335 -0.817066 -1.992818
  H 0.731945 0.591453 1.519477
  H 0.506505 -0.784026 0.419601
  H 0.511335 0.826449 -0.225567
  H 2.277697 -0.671288 -1.619889
  H 4.919196 -0.093892 -0.172350
  H 5.160057 -2.358208 -3.519027
  H 5.157670 -0.759063 -4.158460
  H 2.668477 -0.585008 -3.784418
  H 2.671178 -2.233199 -3.125646
  H 6.866117 -0.473189 -1.134907
 20
 44.683334
  C 0.955346 0.210406 0.570823
  C 2.388234 0.116050 0.346666
  H 3.058341 0.431608 1.138334
  C 2.919125 -0.354115 -0.824196
  C 4.314409 -0.431301 -1.014445
  C 4.936362 -0.878706 -2.136941
  C 4.647872 -1.395190 -3.428811
  C 3.185868 -1.553860 -3.817827
  H 3.142413 -1.957416 -4.827862
  O 6.719165 -0.822333 -2.009291
  H 0.714161 0.604981 1.552701
  H 0.484817 -0.768962 0.445035
  H 0.490572 0.835342 -0.197350
  H 2.248627 -0.666042 -1.607621
  H 4.930275 -0.100694 -0.185583
  H 5.176160 -2.356456 -3.517356
  H 5.173044 -0.757768 -4.156080
  H 2.670604 -0.596410 -3.820032
  H 2.674285 -2.251415 -3.158767
  H 6.918130 -0.469028 -1.126634
 20
 62.774880
  C 0.945103 0.217450 0.589312
  C 2.381849 0.122779 0.362082
  H 3.052021 0.437434 1.150100
  C 2.914124 -0.351093 -0.817875
  C 4.302843 -0.429114 -1.010833
  C 4.893152 -0.875986 -2.130894
  C 4.637236 -1.399964 -3.440843
  C 3.174845 -1.565098 -3.846360
  H 3.141890 -1.967833 -4.853377
  O 6.834023 -0.812016 -1.982348
  H 0.703177 0.611522 1.570075
  H 0.474089 -0.761080 0.460727
  H 0.478609 0.838777 -0.180311
  H 2.244224 -0.664625 -1.603634
  H 4.922575 -0.100973 -0.189275
  H 5.173992 -2.357090 -3.524651
  H 5.171247 -0.762942 -4.162064
  H 2.657708 -0.610805 -3.851722
  H 2.661221 -2.261774 -3.191483
  H 6.993994 -0.464444 -1.111266
 20
 78.440154
  C 0.938297 0.230095 0.621303
  C 2.371467 0.131221 0.381699
  H 3.052924 0.444300 1.164559
  C 2.887648 -0.343836 -0.800933
  C 4.281767 -0.430116 -1.014731
  C 4.816576 -0.883408 -2.150323
  C 4.640074 -1.402354 -3.447482
  C 3.182588 -1.580792 -3.885500
  H 3.176135 -1.984784 -4.895122
  O 6.915504 -0.811587 -1.981365
  H 0.703468 0.624633 1.603473
  H 0.461656 -0.747198 0.489691
  H 0.465036 0.847305 -0.149808
  H 2.214216 -0.656781 -1.583927
  H 4.920459 -0.106469 -0.204877
  H 5.191814 -2.353504 -3.517680
  H 5.188817 -0.760407 -4.155068
  H 2.659958 -0.628500 -3.897110
  H 2.663503 -2.280228 -3.236065
  H 7.026461 -0.463221 -1.102196
 20
 91.259747
  C 0.927301 0.234994 0.634107
  C 2.358362 0.133174 0.385968
  H 3.042852 0.444023 1.162621
  C 2.865759 -0.342471 -0.798109
  C 4.263147 -0.432611 -1.021713
  C 4.784773 -0.883761 -2.151393
  C 4.627732 -1.405196 -3.454378
  C 3.172100 -1.588166 -3.903993
  H 3.176074 -1.991062 -4.910432
  O 7.041951 -0.804777 -1.964432
  H 0.699667 0.629962 1.617364
  H 0.448265 -0.739861 0.505301
  H 0.451039 0.851943 -0.133338
  H 2.187690 -0.654556 -1.578324
  H 4.907260 -0.110355 -0.215669
  H 5.180412 -2.354786 -3.520178
  H 5.177646 -0.761640 -4.157849
  H 2.647990 -0.638036 -3.918924
  H 2.651377 -2.287872 -3.258430
  H 7.151318 -0.453706 -1.076376
 20
 101.044593
  C 0.911810 0.241915 0.651562
  C 2.345720 0.135631 0.391894
  H 3.038219 0.445029 1.164747
  C 2.839448 -0.339453 -0.790781
  C 4.242206 -0.435558 -1.029155
  C 4.740687 -0.888422 -2.162846
  C 4.624499 -1.407525 -3.460041
  C 3.169193 -1.595728 -3.922846
  H 3.186038 -1.999346 -4.931076
  O 7.155659 -0.800318 -1.953543
  H 0.693273 0.637658 1.636860
  H 0.427973 -0.731756 0.526102
  H 0.430531 0.860135 -0.112656
  H 2.157621 -0.649913 -1.566792
  H 4.895626 -0.115366 -0.228583
  H 5.180473 -2.355914 -3.518656
  H 5.177765 -0.759933 -4.157483
  H 2.642887 -0.645864 -3.940852
  H 2.646111 -2.297353 -3.279621
  H 7.250154 -0.452700 -1.072903
 20
 106.475505
  C 0.903539 0.269245 0.719327
  C 2.328780 0.144110 0.413572
  H 3.043425 0.444961 1.165405
  C 2.771817 -0.333483 -0.775178
  C 4.182297 -0.450893 -1.066506
  C 4.646204 -0.901169 -2.193690
  C 4.646475 -1.415829 -3.480373
  C 3.202773 -1.624721 -3.994977
  H 3.274706 -2.026326 -4.998461
  O 7.214735 -0.788549 -1.925287
  H 0.729821 0.667757 1.711308
  H 0.404214 -0.696764 0.616737
  H 0.407272 0.897872 -0.023255
  H 2.067152 -0.637074 -1.534181
  H 4.856634 -0.135842 -0.278701
  H 5.206444 -2.360574 -3.512181
  H 5.203784 -0.752370 -4.155812
  H 2.667404 -0.682166 -4.031100
  H 2.670627 -2.333536 -3.370056
  H 7.313081 -0.439687 -1.042124
 20
 109.106581
  C 0.892329 0.281189 0.749417
  C 2.316533 0.148393 0.424147
  H 3.042310 0.446694 1.170371
  C 2.740071 -0.331149 -0.770278
  C 4.144956 -0.457556 -1.083751
  C 4.591313 -0.908580 -2.212388
  C 4.650678 -1.420774 -3.492678
  C 3.210198 -1.637097 -4.025547
  H 3.301956 -2.039351 -5.030231
  O 7.315429 -0.780547 -1.905685
  H 0.736058 0.681022 1.745705
  H 0.386429 -0.683474 0.655764
  H 0.389371 0.915487 0.014565
  H 2.028437 -0.631706 -1.521964
  H 4.829805 -0.145310 -0.302594
  H 5.212377 -2.364735 -3.511767
  H 5.209705 -0.749324 -4.158535
  H 2.670789 -0.695141 -4.067673
  H 2.673931 -2.349522 -3.404963
  H 7.413237 -0.431724 -1.021379
 20
 110.244320
  C 0.882243 0.293067 0.779260
  C 2.301242 0.151948 0.433066
  H 3.035994 0.445758 1.168969
  C 2.702575 -0.328183 -0.763651
  C 4.107884 -0.464786 -1.102248
  C 4.542184 -0.915211 -2.229049
  C 4.654829 -1.426031 -3.505700
  C 3.216935 -1.649177 -4.055151
  H 3.326366 -2.050207 -5.056409
  O 7.421483 -0.771045 -1.882503
  H 0.745601 0.693058 1.776936
  H 0.370534 -0.667796 0.695893
  H 0.373573 0.932225 0.054887
  H 1.979846 -0.625448 -1.507545
  H 4.803689 -0.155603 -0.328504
  H 5.216550 -2.369097 -3.512918
  H 5.213806 -0.747174 -4.162553
  H 2.674826 -0.710794 -4.103362
  H 2.678151 -2.362974 -3.441232
  H 7.523884 -0.423018 -0.998616
 20
 110.543130
  C 0.871238 0.302364 0.802587
  C 2.288055 0.154290 0.439116
  H 3.031874 0.445383 1.168933
  C 2.673083 -0.327817 -0.763075
  C 4.070916 -0.472055 -1.120435
  C 4.500668 -0.921797 -2.245419
  C 4.654677 -1.430124 -3.515829
  C 3.218599 -1.657660 -4.075897
  H 3.340523 -2.058746 -5.077225
  O 7.535112 -0.761709 -1.860048
  H 0.749901 0.703202 1.803109
  H 0.354314 -0.656943 0.727655
  H 0.357492 0.946684 0.085632
  H 1.942747 -0.621887 -1.499411
  H 4.775503 -0.165317 -0.352635
  H 5.215004 -2.373054 -3.513521
  H 5.212114 -0.744816 -4.165793
  H 2.673540 -0.720136 -4.128532
  H 2.676924 -2.373922 -3.465572
  H 7.646387 -0.413330 -0.973234
 20
 110.562576
  C 0.860794 0.310668 0.823675
  C 2.271883 0.156506 0.444629
  H 3.022750 0.444390 1.166493
  C 2.640775 -0.326477 -0.759961
  C 4.035956 -0.478374 -1.136342
  C 4.463469 -0.927377 -2.259215
  C 4.653290 -1.434485 -3.526415
  C 3.217775 -1.665150 -4.094356
  H 3.348844 -2.065479 -5.093635
  O 7.653000 -0.751699 -1.835479
  H 0.753812 0.711654 1.824937
  H 0.339940 -0.646000 0.756649
  H 0.342991 0.958611 0.114413
  H 1.900973 -0.617812 -1.489413
  H 4.750160 -0.173999 -0.374595
  H 5.212085 -2.377958 -3.516298
  H 5.209278 -0.743530 -4.171203
  H 2.671079 -0.729799 -4.150662
  H 2.674396 -2.382177 -3.488121
  H 7.773420 -0.404328 -0.949242
 20
 110.517421
  C 0.848228 0.317370 0.840002
  C 2.257302 0.157543 0.447935
  H 3.015135 0.443122 1.164657
  C 2.614340 -0.327172 -0.760923
  C 4.001847 -0.484903 -1.151056
  C 4.430904 -0.933159 -2.272627
  C 4.647852 -1.438015 -3.534944
  C 3.212152 -1.670037 -4.106212
  H 3.348398 -2.070271 -5.105826
  O 7.775578 -0.741537 -1.811909
  H 0.752240 0.718964 1.842945
  H 0.323319 -0.637997 0.779134
  H 0.326909 0.969062 0.136050
  H 1.868042 -0.615572 -1.483960
  H 4.723679 -0.183152 -0.394785
  H 5.204323 -2.381653 -3.519242
  H 5.201317 -0.742767 -4.175621
  H 2.663784 -0.735113 -4.164576
  H 2.667219 -2.388484 -3.501938
  H 7.906411 -0.394363 -0.924473
 20
 107.131732
  C 0.803636 0.324078 0.864270
  C 2.193692 0.150673 0.419421
  H 2.980493 0.436168 1.103195
  C 2.510569 -0.344927 -0.794326
  C 3.867872 -0.515257 -1.233682
  C 4.374133 -0.959749 -2.329286
  C 4.825599 -1.440622 -3.533870
  C 3.310597 -1.619396 -3.947670
  H 3.370174 -2.025550 -4.957635
  O 7.517608 -0.762315 -1.930576
  H 0.745599 0.733807 1.867087
  H 0.272284 -0.628892 0.833225
  H 0.262780 0.976928 0.176785
  H 1.730878 -0.632616 -1.482910
  H 4.664273 -0.225326 -0.540115
  H 5.365976 -2.384661 -3.505005
  H 5.352497 -0.731846 -4.169677
  H 2.769374 -0.678647 -3.998364
  H 2.782465 -2.340546 -3.329197
  H 8.088481 -0.469436 -1.209038
