 19
 0.000000
  H 1.505719 0.145516 0.416294
  C 2.587338 0.133452 0.384546
  C 3.281415 0.614223 1.576886
  C 2.358370 1.063970 2.698181
  H 2.934866 1.407653 3.551329
  C 3.182048 -0.330490 -0.769097
  C 4.571658 -0.412609 -0.973253
  C 5.175098 -0.873238 -2.122395
  C 4.528283 -1.356611 -3.332334
  H 3.444637 -1.342940 -3.302293
  H 6.258206 -0.881048 -2.139047
  H 3.956817 1.436505 1.298797
  H 3.959088 -0.169784 1.945095
  H 1.719787 0.247859 3.027401
  H 1.717719 1.879458 2.371416
  H 2.527815 -0.651314 -1.566972
  H 5.218776 -0.090905 -0.169091
  H 4.882289 -2.370170 -3.546689
  H 4.884683 -0.771772 -4.186420
 19
 8.817191
  H 1.454628 0.157269 0.445528
  C 2.536025 0.138490 0.396996
  C 3.253917 0.615567 1.580104
  C 2.354098 1.070871 2.715369
  H 2.947385 1.410871 3.559326
  C 3.101534 -0.324511 -0.754285
  C 4.646193 -0.421286 -0.994842
  C 5.220369 -0.880760 -2.141074
  C 4.548894 -1.360930 -3.343133
  H 3.466999 -1.339219 -3.293227
  H 6.302820 -0.895332 -2.174477
  H 3.929617 1.431986 1.291112
  H 3.932024 -0.171747 1.936260
  H 1.715180 0.258700 3.055192
  H 1.713053 1.890835 2.399068
  H 2.446743 -0.643254 -1.546807
  H 5.293415 -0.101701 -0.195897
  H 4.891127 -2.376128 -3.563305
  H 4.893646 -0.778984 -4.202598
 19
 26.761676
  H 1.409143 0.168444 0.473650
  C 2.488841 0.140000 0.400894
  C 3.233086 0.609672 1.565141
  C 2.365217 1.072228 2.718495
  H 2.979745 1.407336 3.549934
  C 3.012038 -0.324948 -0.754948
  C 4.717630 -0.422843 -0.998161
  C 5.253830 -0.882853 -2.146080
  C 4.562056 -1.356788 -3.333222
  H 3.484051 -1.323312 -3.254417
  H 6.334298 -0.905555 -2.199592
  H 3.909727 1.417476 1.260848
  H 3.912488 -0.181956 1.904205
  H 1.724531 0.266554 3.072114
  H 1.722264 1.896915 2.416687
  H 2.406642 -0.654580 -1.574032
  H 5.310871 -0.091877 -0.170523
  H 4.887887 -2.373379 -3.557697
  H 4.890640 -0.776659 -4.196603
 19
 47.151423
  H 1.350914 0.182961 0.510130
  C 2.433212 0.147649 0.420152
  C 3.203473 0.615828 1.580275
  C 2.357288 1.084174 2.748107
  H 2.986544 1.415158 3.569017
  C 2.931302 -0.319296 -0.740514
  C 4.791899 -0.432144 -1.020822
  C 5.304750 -0.893865 -2.173260
  C 4.587572 -1.368439 -3.362580
  H 3.508576 -1.328235 -3.267239
  H 6.389637 -0.922725 -2.241963
  H 3.882539 1.420733 1.264161
  H 3.885355 -0.181603 1.908712
  H 1.716603 0.282995 3.111975
  H 1.714158 1.912621 2.456816
  H 2.328040 -0.649951 -1.561999
  H 5.381231 -0.099834 -0.189528
  H 4.904194 -2.390385 -3.592353
  H 4.907127 -0.787940 -4.233381
 19
 66.862999
  H 1.302928 0.191998 0.533644
  C 2.384900 0.147142 0.419127
  C 3.184844 0.611834 1.569560
  C 2.369083 1.087232 2.755560
  H 3.017076 1.413716 3.564183
  C 2.841840 -0.316493 -0.733223
  C 4.862143 -0.433563 -1.022943
  C 5.339008 -0.893873 -2.172709
  C 4.600217 -1.368156 -3.362463
  H 3.523175 -1.318580 -3.243755
  H 6.425704 -0.930394 -2.260480
  H 3.863711 1.409965 1.236565
  H 3.867180 -0.191974 1.881014
  H 1.725885 0.292428 3.130719
  H 1.722940 1.918524 2.476915
  H 2.282282 -0.655638 -1.576018
  H 5.400655 -0.091893 -0.167165
  H 4.904320 -2.392635 -3.595793
  H 4.907448 -0.787754 -4.237282
 19
 72.954825
  H 1.328017 0.214765 0.586223
  C 2.415602 0.149201 0.426276
  C 3.204643 0.619569 1.592757
  C 2.353376 1.090142 2.761025
  H 2.994601 1.420418 3.580279
  C 2.752128 -0.312829 -0.719870
  C 4.928094 -0.440932 -1.043826
  C 5.301890 -0.896294 -2.180738
  C 4.615055 -1.383332 -3.401327
  H 3.531130 -1.338427 -3.294959
  H 6.402197 -0.937649 -2.280693
  H 3.867791 1.434776 1.268905
  H 3.869248 -0.191397 1.924517
  H 1.718880 0.287593 3.132438
  H 1.717957 1.925622 2.472210
  H 2.331709 -0.677191 -1.623320
  H 5.324428 -0.076087 -0.132177
  H 4.914485 -2.407880 -3.606136
  H 4.917613 -0.783738 -4.255970
 19
 81.418734
  H 1.282543 0.232353 0.630009
  C 2.365432 0.158313 0.448690
  C 3.181580 0.625628 1.607267
  C 2.345934 1.100942 2.787942
  H 2.996374 1.426734 3.595910
  C 2.670253 -0.306083 -0.703266
  C 4.999818 -0.452137 -1.071594
  C 5.346411 -0.909369 -2.213325
  C 4.641507 -1.392671 -3.424607
  H 3.564292 -1.342550 -3.305088
  H 6.442814 -0.957304 -2.329877
  H 3.836914 1.436401 1.273213
  H 3.838498 -0.189086 1.928464
  H 1.713352 0.301866 3.167563
  H 1.712374 1.939303 2.507724
  H 2.266207 -0.672751 -1.612444
  H 5.379119 -0.084024 -0.151603
  H 4.932689 -2.420093 -3.631569
  H 4.935763 -0.792473 -4.282785
 19
 87.905728
  H 1.236136 0.250497 0.675412
  C 2.314336 0.167432 0.471220
  C 3.156657 0.628844 1.614670
  C 2.340858 1.108786 2.807562
  H 3.006250 1.431203 3.606839
  C 2.588144 -0.298694 -0.685034
  C 5.071884 -0.461196 -1.093652
  C 5.392718 -0.919987 -2.239607
  C 4.666032 -1.399606 -3.441988
  H 3.589062 -1.342977 -3.306084
  H 6.487620 -0.974900 -2.373820
  H 3.808161 1.437669 1.267631
  H 3.810085 -0.193273 1.924986
  H 1.709669 0.312799 3.196943
  H 1.708255 1.951582 2.536718
  H 2.201899 -0.667805 -1.600348
  H 5.430173 -0.091185 -0.168548
  H 4.947717 -2.428947 -3.651723
  H 4.950751 -0.799759 -4.303432
 19
 92.907524
  H 1.187230 0.268546 0.720702
  C 2.261393 0.176017 0.492494
  C 3.131240 0.631122 1.619617
  C 2.338322 1.116264 2.826101
  H 3.018812 1.434101 3.613483
  C 2.504733 -0.291744 -0.667718
  C 5.142865 -0.470070 -1.115004
  C 5.439014 -0.930177 -2.264713
  C 4.690267 -1.405217 -3.456291
  H 3.616937 -1.341597 -3.302955
  H 6.532508 -0.992467 -2.417379
  H 3.778533 1.436500 1.259001
  H 3.780927 -0.197672 1.917630
  H 1.709222 0.324433 3.226260
  H 1.707366 1.963213 2.566102
  H 2.138280 -0.662890 -1.587947
  H 5.478531 -0.097568 -0.183171
  H 4.961805 -2.436575 -3.669050
  H 4.964921 -0.805764 -4.321145
 19
 96.624671
  H 1.138857 0.286345 0.765278
  C 2.206909 0.184371 0.513306
  C 3.104538 0.632738 1.623185
  C 2.337107 1.123486 2.843940
  H 3.034544 1.436526 3.619009
  C 2.421416 -0.284820 -0.650231
  C 5.213997 -0.478499 -1.135654
  C 5.486881 -0.939929 -2.288869
  C 4.714900 -1.409989 -3.468569
  H 3.644358 -1.338583 -3.296169
  H 6.577436 -1.009965 -2.460572
  H 3.747953 1.434055 1.248490
  H 3.750663 -0.202734 1.908143
  H 1.709958 0.335889 3.255864
  H 1.707796 1.975376 2.595446
  H 2.073271 -0.658415 -1.576279
  H 5.527565 -0.103993 -0.198472
  H 4.975551 -2.443465 -3.684653
  H 4.978950 -0.811248 -4.337219
 19
 99.359511
  H 1.089031 0.304516 0.809519
  C 2.150479 0.193017 0.534344
  C 3.075994 0.633977 1.626591
  C 2.336561 1.130712 2.861988
  H 3.051201 1.437751 3.622902
  C 2.338579 -0.277417 -0.632142
  C 5.285243 -0.486817 -1.157321
  C 5.536641 -0.949656 -2.313771
  C 4.740282 -1.414758 -3.480011
  H 3.674487 -1.335508 -3.287203
  H 6.623469 -1.027416 -2.505273
  H 3.716190 1.430354 1.237742
  H 3.718317 -0.208170 1.897837
  H 1.711482 0.348285 3.286130
  H 1.709866 1.987748 2.625962
  H 2.005137 -0.652411 -1.561768
  H 5.581180 -0.110190 -0.215283
  H 4.989642 -2.450214 -3.699678
  H 4.992580 -0.817229 -4.352923
 19
 101.339342
  H 1.039743 0.322654 0.854348
  C 2.093591 0.201823 0.556114
  C 3.046554 0.635182 1.629706
  C 2.336375 1.137881 2.879726
  H 3.068936 1.438931 3.626046
  C 2.256483 -0.269649 -0.612786
  C 5.356853 -0.495464 -1.179196
  C 5.587667 -0.959514 -2.338652
  C 4.766348 -1.419096 -3.490778
  H 3.704916 -1.331532 -3.276854
  H 6.669968 -1.045268 -2.550324
  H 3.683527 1.426435 1.226436
  H 3.685452 -0.213474 1.886998
  H 1.713599 0.360481 3.316647
  H 1.712259 2.000342 2.656394
  H 1.935144 -0.646153 -1.546101
  H 5.637351 -0.117467 -0.233854
  H 5.003933 -2.456514 -3.714264
  H 5.006712 -0.822818 -4.367940
 19
 102.733403
  H 0.990802 0.340891 0.899945
  C 2.036591 0.210864 0.578883
  C 3.016500 0.636557 1.633244
  C 2.336328 1.145070 2.897247
  H 3.086404 1.439920 3.628136
  C 2.175249 -0.261539 -0.592058
  C 5.428759 -0.504681 -1.202026
  C 5.639579 -0.969746 -2.364254
  C 4.793003 -1.423251 -3.501531
  H 3.737085 -1.327173 -3.266351
  H 6.716798 -1.063711 -2.596417
  H 3.650231 1.422569 1.215553
  H 3.652057 -0.218326 1.876631
  H 1.716331 0.372963 3.347002
  H 1.715189 2.012688 2.686668
  H 1.864022 -0.639003 -1.527575
  H 5.696517 -0.125452 -0.253409
  H 5.018388 -2.462454 -3.728938
  H 5.021252 -0.828306 -4.382673
 19
 103.670825
  H 0.943176 0.359413 0.946455
  C 1.980251 0.220375 0.603080
  C 2.986155 0.638310 1.637859
  C 2.336092 1.152516 2.915152
  H 3.103404 1.441149 3.630479
  C 2.095413 -0.252835 -0.569463
  C 5.501295 -0.514441 -1.226140
  C 5.692414 -0.980425 -2.390937
  C 4.820597 -1.427478 -3.512728
  H 3.770456 -1.322747 -3.256253
  H 6.763795 -1.082708 -2.643695
  H 3.616594 1.418914 1.206041
  H 3.618260 -0.222523 1.867600
  H 1.718999 0.385591 3.377730
  H 1.718104 2.025395 2.717044
  H 1.791967 -0.631356 -1.507324
  H 5.758604 -0.134515 -0.275483
  H 5.033565 -2.468426 -3.743975
  H 5.036734 -0.833796 -4.397795
