 20
 0.000000
  H 1.475662 0.042874 0.277078
  C 2.549990 0.052691 0.169175
  C 3.350003 -0.017924 1.438343
  C 2.497306 -0.080638 2.702515
  C 3.367185 -0.149039 3.952956
  C 3.120535 0.122165 -1.032990
  H 2.582925 0.167423 -1.969245
  C 4.554849 0.128261 -1.232580
  C 5.131469 0.192615 -2.434516
  O 6.466899 0.199424 -2.663481
  H 4.001569 0.859560 1.503702
  H 3.997789 -0.902208 1.403293
  H 1.852541 -0.961724 2.668093
  H 1.859526 0.804222 2.759482
  H 4.000189 -1.033905 3.931532
  H 2.749095 -0.193068 4.846839
  H 4.007155 0.728292 4.023155
  H 5.197198 0.077029 -0.363411
  H 4.583854 0.246710 -3.364000
  H 6.941795 0.150494 -1.823604
 20
 -0.840386
  H 1.576295 0.264555 0.295744
  C 2.653062 0.205398 0.209162
  C 3.408314 0.159272 1.504128
  C 2.501867 -0.165565 2.689999
  C 3.280997 -0.218166 3.998288
  C 3.206304 0.172776 -1.004660
  H 2.576627 0.184351 -1.883363
  C 4.623387 0.120248 -1.279181
  C 5.117646 0.060145 -2.518038
  O 6.428071 0.014896 -2.845746
  H 3.895079 1.124855 1.681195
  H 4.194646 -0.597129 1.434929
  H 2.016405 -1.129463 2.517272
  H 1.719178 0.593598 2.764718
  H 4.054255 -0.981562 3.952196
  H 2.619746 -0.451195 4.829234
  H 3.757402 0.739010 4.197903
  H 5.304597 0.141831 -0.438454
  H 4.491942 0.042626 -3.398026
  H 6.963856 0.032102 -2.044807
 20
 -0.229470
  H 1.572660 0.553832 0.298468
  C 2.642050 0.412845 0.226814
  C 3.389914 0.374463 1.525235
  C 2.532466 -0.221562 2.642780
  C 3.300506 -0.309490 3.955788
  C 3.199324 0.229779 -0.970355
  H 2.582210 0.161425 -1.857366
  C 4.613942 0.135750 -1.245208
  C 5.094383 -0.110542 -2.465673
  O 6.403504 -0.185623 -2.801393
  H 3.712552 1.378236 1.817618
  H 4.270046 -0.254717 1.380085
  H 2.201974 -1.219392 2.345797
  H 1.641938 0.395421 2.784590
  H 4.183081 -0.935495 3.841201
  H 2.676363 -0.737499 4.736872
  H 3.622091 0.679172 4.277176
  H 5.307781 0.298509 -0.430674
  H 4.458847 -0.275011 -3.323537
  H 6.950019 -0.034602 -2.019168
 20
 1.327100
  H 1.555130 0.845386 0.278676
  C 2.609318 0.609451 0.238739
  C 3.340883 0.592535 1.545151
  C 2.580827 -0.263060 2.565169
  C 3.352390 -0.394806 3.872279
  C 3.172564 0.287020 -0.924297
  H 2.572239 0.125888 -1.811497
  C 4.587498 0.154562 -1.185516
  C 5.062341 -0.284309 -2.350191
  O 6.369556 -0.382918 -2.685466
  H 3.472361 1.597529 1.952087
  H 4.305209 0.120670 1.354886
  H 2.408160 -1.254017 2.139803
  H 1.605672 0.188093 2.763287
  H 4.318457 -0.865008 3.700399
  H 2.797975 -1.001892 4.584273
  H 3.522756 0.584202 4.315727
  H 5.287660 0.466973 -0.421677
  H 4.424064 -0.607831 -3.159197
  H 6.919023 -0.087747 -1.947778
 20
 7.456896
  H 1.533711 1.084871 0.191326
  C 2.542318 0.700974 0.228422
  C 3.275182 0.734421 1.535221
  C 2.603468 -0.254810 2.503321
  C 3.434512 -0.445214 3.765986
  C 3.129771 0.188766 -0.856529
  H 2.558163 -0.141261 -1.717651
  C 4.549677 0.170893 -1.126439
  C 5.076447 -0.437675 -2.191622
  O 6.382503 -0.415491 -2.549021
  H 3.316703 1.717840 1.998976
  H 4.244289 0.297328 1.291092
  H 2.471635 -1.214049 1.999116
  H 1.611960 0.114928 2.776528
  H 4.419604 -0.836527 3.520635
  H 2.946856 -1.143881 4.442094
  H 3.562746 0.502191 4.285455
  H 5.208120 0.706475 -0.453810
  H 4.484764 -0.998976 -2.899682
  H 6.887774 0.099049 -1.906366
 20
 20.443674
  H 1.576453 1.198438 0.047463
  C 2.517072 0.695418 0.204953
  C 3.234749 0.760509 1.523144
  C 2.570923 -0.218841 2.514981
  C 3.460904 -0.447773 3.729521
  C 3.153569 0.009290 -0.763182
  H 2.609670 -0.468981 -1.575687
  C 4.557058 0.124552 -1.074038
  C 5.119276 -0.460400 -2.136332
  O 6.386176 -0.251947 -2.570213
  H 3.315260 1.741818 1.977420
  H 4.128374 0.198063 1.232654
  H 2.372148 -1.166220 2.011609
  H 1.609837 0.184050 2.848121
  H 4.402331 -0.906982 3.434923
  H 2.968161 -1.103509 4.443893
  H 3.681467 0.495429 4.224660
  H 5.148092 0.815312 -0.484050
  H 4.586751 -1.139441 -2.785228
  H 6.828846 0.380037 -1.989146
 20
 41.537475
  H 1.569805 1.337888 -0.103262
  C 2.449837 0.773833 0.158522
  C 3.129814 0.812978 1.497286
  C 2.568763 -0.227308 2.499950
  C 3.559000 -0.467577 3.629820
  C 3.140136 -0.022329 -0.694572
  H 2.634366 -0.615953 -1.459993
  C 4.511843 0.205334 -1.064063
  C 5.148307 -0.498982 -2.009278
  O 6.421720 -0.281993 -2.425238
  H 3.225234 1.779728 1.975233
  H 3.932665 0.138400 1.117201
  H 2.343850 -1.161941 1.984583
  H 1.629057 0.141677 2.927455
  H 4.497840 -0.859826 3.243537
  H 3.154533 -1.183669 4.341553
  H 3.768622 0.459870 4.157862
  H 5.046832 0.986046 -0.535001
  H 4.687044 -1.309001 -2.553657
  H 6.803298 0.453756 -1.928837
 20
 69.516213
  H 1.605580 1.474747 -0.231466
  C 2.417665 0.863143 0.129522
  C 3.004310 0.856058 1.477331
  C 2.560706 -0.232242 2.483717
  C 3.629430 -0.475142 3.538645
  C 3.151886 -0.046843 -0.602525
  H 2.665744 -0.705937 -1.332925
  C 4.520755 0.208794 -1.000289
  C 5.168084 -0.513884 -1.919640
  O 6.434002 -0.277280 -2.356349
  H 3.100646 1.811354 1.989242
  H 3.761668 0.026085 0.971071
  H 2.321331 -1.164005 1.968142
  H 1.644067 0.108113 2.983170
  H 4.547628 -0.839957 3.081402
  H 3.288126 -1.213645 4.260247
  H 3.856241 0.445494 4.071479
  H 5.025103 1.041545 -0.522678
  H 4.730248 -1.363112 -2.421012
  H 6.792795 0.493856 -1.899591
 20
 83.897773
  H 1.646108 1.540037 -0.242854
  C 2.423598 0.911002 0.164052
  C 2.918979 0.887550 1.482556
  C 2.547791 -0.221165 2.468697
  C 3.639902 -0.468285 3.503293
  C 3.181032 -0.079453 -0.527760
  H 2.679850 -0.747659 -1.235966
  C 4.556217 0.205206 -0.976913
  C 5.182703 -0.503649 -1.911920
  O 6.437406 -0.254787 -2.382783
  H 2.996985 1.835835 2.029307
  H 3.727652 -0.125920 0.797781
  H 2.318627 -1.152458 1.945334
  H 1.636447 0.097875 2.988190
  H 4.556100 -0.808667 3.023298
  H 3.324130 -1.226472 4.216074
  H 3.860014 0.445656 4.050575
  H 5.058231 1.047923 -0.514443
  H 4.742515 -1.358964 -2.400433
  H 6.799240 0.520296 -1.936017
 20
 67.825854
  H 1.734694 1.564489 -0.243745
  C 2.469490 0.922415 0.213921
  C 2.871309 0.920421 1.509773
  C 2.526056 -0.183818 2.483951
  C 3.613985 -0.444664 3.525242
  C 3.235626 -0.160878 -0.455434
  H 2.710840 -0.825156 -1.135367
  C 4.605673 0.181923 -0.975201
  C 5.191287 -0.460614 -1.980268
  O 6.429677 -0.185500 -2.483278
  H 2.932294 1.862914 2.071281
  H 3.717591 -0.334167 0.620375
  H 2.300100 -1.114486 1.956815
  H 1.616350 0.140240 2.997010
  H 4.526319 -0.798565 3.048611
  H 3.287111 -1.196409 4.240174
  H 3.844352 0.468263 4.070522
  H 5.108936 1.015647 -0.499025
  H 4.737264 -1.293979 -2.494640
  H 6.809111 0.564420 -2.007369
 20
 41.649271
  H 2.025059 1.655770 -0.288399
  C 2.618747 0.937442 0.251645
  C 2.828816 0.940877 1.569002
  C 2.504189 -0.193503 2.505899
  C 3.550468 -0.419163 3.598273
  C 3.315533 -0.233907 -0.402492
  H 2.739614 -0.852787 -1.078231
  C 4.635263 0.162179 -1.020826
  C 5.169704 -0.446932 -2.064996
  O 6.358424 -0.128351 -2.648475
  H 2.800518 1.876427 2.135834
  H 3.749173 -0.564635 0.569712
  H 2.344924 -1.126381 1.960641
  H 1.557067 0.086104 2.974252
  H 4.504520 -0.708612 3.161722
  H 3.231939 -1.206942 4.277269
  H 3.700117 0.491163 4.175161
  H 5.152906 0.989408 -0.550527
  H 4.704150 -1.283830 -2.562979
  H 6.751123 0.622128 -2.185959
 20
 23.636143
  H 2.254738 1.674787 -0.333124
  C 2.723085 0.903922 0.258359
  C 2.782601 0.931973 1.588190
  C 2.506887 -0.211594 2.526813
  C 3.523873 -0.337224 3.661781
  C 3.346158 -0.296016 -0.409005
  H 2.733708 -0.817406 -1.135773
  C 4.659689 0.112303 -1.028697
  C 5.121501 -0.373530 -2.169822
  O 6.311870 -0.055524 -2.747062
  H 2.708090 1.870673 2.137439
  H 3.689248 -0.834469 0.485057
  H 2.438185 -1.162285 1.995276
  H 1.522994 0.002384 2.952931
  H 4.512958 -0.556990 3.265077
  H 3.241862 -1.136880 4.343139
  H 3.580696 0.591300 4.226156
  H 5.235873 0.843013 -0.474494
  H 4.585651 -1.101299 -2.760923
  H 6.768166 0.597957 -2.202617
 20
 11.344403
  H 2.505469 1.732758 -0.324874
  C 2.789585 0.883977 0.280442
  C 2.697348 0.915794 1.601474
  C 2.515507 -0.249117 2.534043
  C 3.533869 -0.261925 3.674158
  C 3.332605 -0.320020 -0.438746
  H 2.685704 -0.693177 -1.228797
  C 4.673924 0.048117 -1.016151
  C 5.080015 -0.297900 -2.227517
  O 6.289596 -0.007560 -2.775980
  H 2.558637 1.845702 2.145248
  H 3.543921 -1.054836 0.345124
  H 2.547028 -1.203695 2.008540
  H 1.511867 -0.138891 2.955478
  H 4.541702 -0.376853 3.280691
  H 3.334687 -1.084751 4.357151
  H 3.490238 0.669270 4.235261
  H 5.320839 0.627589 -0.368913
  H 4.473109 -0.874824 -2.909797
  H 6.810404 0.511549 -2.150563
 20
 5.645254
  H 2.706154 1.744976 -0.280870
  C 2.841112 0.848688 0.310470
  C 2.600677 0.877215 1.611248
  C 2.521457 -0.284573 2.557185
  C 3.537887 -0.159442 3.692070
  C 3.327139 -0.346492 -0.459043
  H 2.656136 -0.593698 -1.281910
  C 4.694598 -0.043308 -1.002285
  C 5.047498 -0.222653 -2.265361
  O 6.275276 0.023274 -2.793257
  H 2.415170 1.817194 2.118235
  H 3.418356 -1.189046 0.230469
  H 2.663334 -1.236039 2.045526
  H 1.512923 -0.287778 2.982390
  H 4.550449 -0.172193 3.294381
  H 3.432253 -0.984887 4.392522
  H 3.395118 0.773616 4.233178
  H 5.409133 0.343374 -0.285740
  H 4.373483 -0.609458 -3.015647
  H 6.857898 0.372440 -2.107284
 20
 4.145083
  H 2.871640 1.734930 -0.232511
  C 2.894505 0.816033 0.340095
  C 2.546796 0.847606 1.616416
  C 2.490633 -0.292724 2.583821
  C 3.529696 -0.117958 3.692297
  C 3.365853 -0.375949 -0.443760
  H 2.669868 -0.581545 -1.261144
  C 4.731001 -0.105067 -1.001747
  C 5.030259 -0.160840 -2.290236
  O 6.249351 0.084499 -2.838115
  H 2.265073 1.801036 2.046267
  H 3.407828 -1.246289 0.213725
  H 2.649031 -1.247882 2.083500
  H 1.492491 -0.316737 3.033309
  H 4.530480 -0.083950 3.268455
  H 3.479685 -0.946001 4.395623
  H 3.357013 0.810076 4.236227
  H 5.489918 0.161824 -0.276000
  H 4.308238 -0.420590 -3.049724
  H 6.876696 0.310737 -2.140222
