 11
 0.000000
  H 1.363789 0.138534 0.394016
  C 2.438759 0.112343 0.330826
  H 2.997512 0.456121 1.187788
  C 3.069460 -0.338694 -0.791602
  C 4.468638 -0.377772 -0.888368
  C 5.136985 -0.832587 -2.022769
  H 4.596249 -1.183510 -2.897020
  O 6.408836 -0.877035 -2.135413
  H 2.487034 -0.678108 -1.638017
  H 5.078602 -0.044714 -0.058413
  H 6.910241 -0.560997 -1.348714
 11
 2.451297
  H 1.347691 0.203821 0.325236
  C 2.422497 0.128858 0.302307
  H 2.955884 0.375218 1.209298
  C 3.082533 -0.264756 -0.827830
  C 4.483809 -0.362180 -0.877608
  C 5.152293 -0.848158 -1.998310
  H 4.586370 -1.309988 -2.809220
  O 6.422689 -0.953380 -2.126629
  H 2.518751 -0.504748 -1.722441
  H 5.052976 -0.132834 0.015857
  H 6.975109 -0.314829 -1.620637
 11
 9.767941
  H 1.328232 0.231237 0.264002
  C 2.401410 0.147508 0.260127
  H 2.919145 0.382284 1.176616
  C 3.077781 -0.245761 -0.856763
  C 4.478745 -0.360847 -0.875571
  C 5.168705 -0.836610 -1.982025
  H 4.607754 -1.224103 -2.833502
  O 6.446802 -1.000205 -2.053437
  H 2.533164 -0.468782 -1.763921
  H 5.037342 -0.133351 0.022000
  H 7.080862 -0.267843 -1.927156
 11
 15.580066
  H 1.310492 0.244571 0.194770
  C 2.384537 0.167084 0.204320
  H 2.891808 0.423152 1.121008
  C 3.077198 -0.243371 -0.898549
  C 4.477259 -0.357692 -0.894773
  C 5.190185 -0.786129 -2.010554
  H 4.648919 -1.094088 -2.909987
  O 6.468360 -0.970529 -1.991910
  H 2.545523 -0.489585 -1.807450
  H 5.035326 -0.116144 0.001486
  H 7.172092 -0.342401 -2.224375
 11
 10.569736
  H 1.255555 0.161872 0.314771
  C 2.330807 0.104557 0.331260
  H 2.830667 0.404496 1.238702
  C 3.034244 -0.334990 -0.751497
  C 4.433806 -0.442949 -0.732529
  C 5.181551 -0.823838 -1.843040
  H 4.695945 -1.000883 -2.804583
  O 6.452351 -0.991629 -1.731768
  H 2.510198 -0.621163 -1.653832
  H 4.999752 -0.149780 0.144496
  H 7.159950 -0.556832 -2.245136
 11
 2.782592
  H 1.237618 0.099509 0.284095
  C 2.313471 0.070598 0.316621
  H 2.790722 0.351364 1.241934
  C 3.042900 -0.309122 -0.763513
  C 4.445054 -0.372541 -0.727207
  C 5.226382 -0.747041 -1.821932
  H 4.767935 -0.989796 -2.779092
  O 6.496493 -0.828640 -1.657750
  H 2.539945 -0.582070 -1.682073
  H 4.997180 -0.049334 0.149683
  H 7.100423 -0.829387 -2.428725
 11
 7.779067
  H 1.235529 0.081940 0.336047
  C 2.311053 0.032147 0.340655
  H 2.812027 0.163713 1.286313
  C 3.012644 -0.221233 -0.799181
  C 4.406561 -0.361070 -0.789817
  C 5.205804 -0.842194 -1.825992
  H 4.835908 -1.369583 -2.700544
  O 6.468761 -0.722182 -1.605429
  H 2.497561 -0.312174 -1.746282
  H 5.067921 0.054500 -0.033305
  H 7.118058 -0.693942 -2.339418
 11
 22.589655
  H 1.253215 0.135223 0.404432
  C 2.322121 0.015790 0.363163
  H 2.862323 0.058522 1.296511
  C 2.960250 -0.182489 -0.818989
  C 4.333965 -0.415846 -0.888629
  C 5.187152 -0.944352 -1.855427
  H 4.976165 -1.579933 -2.710833
  O 6.415685 -0.705032 -1.507295
  H 2.414944 -0.112696 -1.750093
  H 5.172771 0.004298 -0.253083
  H 7.101773 -0.470127 -2.173233
 11
 43.648963
  H 1.289992 0.169442 0.489269
  C 2.350845 0.027642 0.384777
  H 2.941753 0.055277 1.287064
  C 2.911164 -0.177638 -0.834760
  C 4.266289 -0.433738 -1.022782
  C 5.166091 -0.982632 -1.904765
  H 5.078295 -1.653494 -2.746767
  O 6.361536 -0.671727 -1.428080
  H 2.300055 -0.092679 -1.728811
  H 5.273783 -0.068018 -0.416224
  H 7.104105 -0.379282 -1.998171
 11
 61.659518
  H 1.292896 0.205661 0.496120
  C 2.341725 0.004298 0.374728
  H 2.933033 -0.049610 1.273353
  C 2.879086 -0.166006 -0.851301
  C 4.204383 -0.482241 -1.111542
  C 5.117374 -1.005713 -1.900572
  H 5.100072 -1.711512 -2.714714
  O 6.356459 -0.635525 -1.341259
  H 2.259627 0.012095 -1.729308
  H 5.556679 -0.089962 -0.510525
  H 7.061432 -0.303394 -1.942017
 11
 54.113856
  H 1.279799 0.202835 0.520519
  C 2.330315 0.035858 0.374254
  H 2.943698 0.018204 1.256081
  C 2.836973 -0.163356 -0.861483
  C 4.145472 -0.496385 -1.160993
  C 5.081811 -1.035534 -1.880125
  H 5.102289 -1.775112 -2.657270
  O 6.365178 -0.602821 -1.326050
  H 2.182986 -0.024985 -1.721667
  H 5.840276 -0.111184 -0.610365
  H 7.070145 -0.290850 -1.943821
 11
 47.568717
  H 1.655323 1.579515 -0.189847
  C 2.625078 1.117223 -0.189837
  H 3.374071 1.563038 0.441033
  C 2.871977 0.019362 -0.933502
  C 4.069751 -0.660556 -0.993701
  C 4.820849 -1.691710 -1.220944
  H 4.623805 -2.750978 -1.231987
  O 6.237773 -1.327962 -1.248127
  H 2.092352 -0.349412 -1.599665
  H 6.030708 -0.366329 -1.085570
  H 6.761733 -1.678940 -2.007356
 11
 41.738727
  H 0.860478 -0.552590 -0.607168
  C 1.899753 -0.800362 -0.536879
  H 2.151931 -1.694213 0.008772
  C 2.840879 -0.016915 -1.110187
  C 4.193703 -0.263518 -1.101059
  C 5.402306 -0.244009 -1.564893
  H 5.776810 -0.140463 -2.568927
  O 6.434934 -0.633815 -0.600740
  H 2.529472 0.927337 -1.561391
  H 5.866406 -0.811126 0.174473
  H 7.208646 -0.055534 -0.519253
 11
 38.367546
  H 0.841954 -0.545714 -0.609766
  C 1.875831 -0.804856 -0.571807
  H 2.128938 -1.754789 -0.132283
  C 2.823672 0.007830 -1.104785
  C 4.161060 -0.242514 -1.117390
  C 5.380957 -0.292091 -1.528817
  H 5.745962 -0.304798 -2.551865
  O 6.434484 -0.580173 -0.582548
  H 2.533601 0.994798 -1.447148
  H 5.979303 -0.724714 0.277220
  H 7.259555 -0.038187 -0.618065
