 20
 0.000000
  C -1.036755 0.084386 2.560629
  C -1.975645 -0.125976 1.375760
  C -3.007050 1.000219 1.304562
  C -1.207940 -0.214752 0.075553
  O -0.010537 -0.004134 0.008057
  C -1.983249 -0.584655 -1.156677
  H -1.594317 0.100860 3.493754
  H -0.497829 1.025166 2.470853
  H -0.303166 -0.716927 2.620576
  H -2.490860 -1.083480 1.512096
  H -2.527605 1.955729 1.099543
  H -3.546159 1.083549 2.244760
  H -3.738840 0.822568 0.518592
  H -3.002248 -0.871695 -0.911584
  H -1.497482 -1.426315 -1.644358
  H -2.005331 0.266420 -1.832438
  O 3.356955 0.172007 -0.053060
  H 2.392748 0.000571 0.000807
  H 3.546516 1.133862 -0.065182
  H 3.756556 -0.280987 -0.825520
 20
 -1.355795
  C -0.997893 0.080700 2.575989
  C -1.910853 -0.128883 1.377003
  C -2.919791 1.003020 1.271472
  C -1.132294 -0.229521 0.082503
  O 0.071674 -0.042844 0.026111
  C -1.915143 -0.585488 -1.148978
  H -1.578122 0.115027 3.488157
  H -0.457743 1.017185 2.477977
  H -0.285047 -0.736206 2.652142
  H -2.454903 -1.070799 1.502695
  H -2.419857 1.949969 1.080476
  H -3.469885 1.096024 2.203601
  H -3.637742 0.830695 0.473662
  H -2.935281 -0.861376 -0.920876
  H -1.428388 -1.408587 -1.657275
  H -1.918864 0.258780 -1.827820
  O 3.106097 0.165892 -0.036444
  H 2.154125 -0.012165 0.010723
  H 3.274590 1.114358 0.000217
  H 3.484228 -0.217965 -0.836943
 20
 -3.234254
  C -0.957878 0.076047 2.577686
  C -1.866259 -0.123081 1.368195
  C -2.887553 1.010669 1.256886
  C -1.082437 -0.239184 0.079100
  O 0.132135 -0.081571 0.032419
  C -1.867511 -0.582189 -1.153263
  H -1.550550 0.125362 3.485928
  H -0.412488 1.010627 2.491816
  H -0.248277 -0.740164 2.671736
  H -2.412174 -1.065922 1.487396
  H -2.376948 1.952369 1.077147
  H -3.433399 1.102989 2.190642
  H -3.589192 0.848348 0.448336
  H -2.887754 -0.871416 -0.936427
  H -1.369183 -1.394371 -1.672154
  H -1.853533 0.270687 -1.829587
  O 2.929853 0.167211 -0.012372
  H 1.957818 -0.041979 0.025117
  H 3.083520 1.132870 0.036037
  H 3.307908 -0.206629 -0.839173
 20
 -3.634963
  C -0.926570 0.101143 2.565210
  C -1.839644 -0.105599 1.353588
  C -2.833844 1.054031 1.215965
  C -1.046309 -0.257059 0.069943
  O 0.162723 -0.123022 0.051505
  C -1.818837 -0.596672 -1.168157
  H -1.519913 0.130320 3.466866
  H -0.387109 1.040392 2.480110
  H -0.219215 -0.720887 2.659138
  H -2.397782 -1.039143 1.481890
  H -2.304929 1.984481 1.019911
  H -3.386801 1.169216 2.145108
  H -3.547067 0.882712 0.413260
  H -2.845490 -0.873284 -0.954448
  H -1.322085 -1.413995 -1.693360
  H -1.808035 0.265317 -1.836224
  O 2.750496 0.034496 -0.051531
  H 1.754765 -0.130605 -0.026090
  H 3.060463 0.759604 0.547867
  H 3.066698 0.211294 -0.966671
 20
 -2.278195
  C -1.015588 0.071395 2.658401
  C -1.838909 -0.098986 1.383984
  C -2.812863 1.084665 1.200316
  C -0.971099 -0.231577 0.161302
  O 0.246137 -0.096339 0.217303
  C -1.655799 -0.519585 -1.133923
  H -1.673536 0.096063 3.522867
  H -0.454866 1.001361 2.629118
  H -0.323862 -0.758736 2.783611
  H -2.432524 -1.019104 1.454256
  H -2.259519 2.013439 1.070166
  H -3.432229 1.179873 2.087991
  H -3.464491 0.941480 0.343710
  H -2.688911 -0.816671 -0.997916
  H -1.117095 -1.298945 -1.670866
  H -1.621059 0.376710 -1.754712
  O 2.667549 0.011715 -0.123139
  H 1.631205 -0.087442 0.066780
  H 2.918794 0.958811 -0.115439
  H 2.865036 -0.379793 -1.001471
 20
 1.644307
  C -1.005342 0.071805 2.652704
  C -1.828811 -0.101057 1.377178
  C -2.802383 1.082966 1.193654
  C -0.961946 -0.236269 0.160380
  O 0.253959 -0.101668 0.230347
  C -1.635020 -0.520152 -1.133863
  H -1.662386 0.100075 3.517103
  H -0.436007 0.996546 2.615830
  H -0.315373 -0.759007 2.779217
  H -2.420204 -1.018692 1.449343
  H -2.250277 2.008588 1.062569
  H -3.425194 1.174760 2.077695
  H -3.452604 0.940111 0.335965
  H -2.668674 -0.819962 -1.006318
  H -1.091840 -1.289586 -1.678071
  H -1.606003 0.382753 -1.743861
  O 2.619510 0.026103 -0.131642
  H 1.501011 -0.086079 0.058668
  H 2.870538 0.964717 -0.088819
  H 2.823783 -0.349890 -1.005505
 20
 5.380216
  C -1.012986 0.064985 2.646157
  C -1.825716 -0.105941 1.381401
  C -2.800931 1.085477 1.185166
  C -0.958827 -0.231845 0.177218
  O 0.256216 -0.061920 0.274102
  C -1.606076 -0.523546 -1.123043
  H -1.672828 0.098030 3.507353
  H -0.446671 0.989649 2.615324
  H -0.323944 -0.762134 2.776718
  H -2.420809 -1.018381 1.449323
  H -2.246782 2.007454 1.065164
  H -3.425069 1.177278 2.062598
  H -3.438834 0.942213 0.326643
  H -2.635054 -0.843393 -1.010508
  H -1.040754 -1.282210 -1.664343
  H -1.580943 0.381647 -1.734207
  O 2.596441 0.028954 -0.161171
  H 1.387110 -0.073666 0.048902
  H 2.851857 0.955580 -0.120794
  H 2.785636 -0.322171 -1.041127
 20
 5.745754
  C -1.075632 0.071946 2.713902
  C -1.847397 -0.105819 1.403844
  C -2.826879 1.076815 1.179845
  C -0.933848 -0.221184 0.200511
  O 0.280298 -0.047921 0.361308
  C -1.529406 -0.508930 -1.107600
  H -1.763798 0.097114 3.546423
  H -0.518102 0.999605 2.707246
  H -0.382956 -0.748751 2.869825
  H -2.437749 -1.029782 1.448717
  H -2.278303 2.003732 1.084259
  H -3.481893 1.158730 2.035886
  H -3.436010 0.932774 0.297471
  H -2.560724 -0.847435 -1.026930
  H -0.936082 -1.247372 -1.641191
  H -1.505024 0.401876 -1.709764
  O 2.622256 0.008096 -0.307639
  H 1.292090 -0.055862 -0.007815
  H 2.926217 0.922429 -0.255340
  H 2.762232 -0.322009 -1.207743
 20
 5.177998
  C -1.114083 0.073443 2.724801
  C -1.860949 -0.100956 1.406657
  C -2.825642 1.059231 1.167574
  C -0.939086 -0.213099 0.242991
  O 0.265539 0.005580 0.448874
  C -1.491885 -0.504908 -1.088922
  H -1.819857 0.092880 3.551501
  H -0.554638 1.006220 2.730567
  H -0.418132 -0.746085 2.887214
  H -2.452205 -1.023429 1.439867
  H -2.274151 1.995099 1.084910
  H -3.498178 1.133777 2.019119
  H -3.420763 0.910836 0.270726
  H -2.517118 -0.847873 -1.048292
  H -0.873513 -1.233201 -1.612858
  H -1.451713 0.409273 -1.686037
  O 2.629835 0.012210 -0.410108
  H 1.178540 -0.060878 0.012126
  H 2.973419 0.903767 -0.332690
  H 2.739350 -0.302365 -1.317326
 20
 3.508785
  C -1.188638 0.064114 2.774298
  C -1.878647 -0.099473 1.421195
  C -2.852997 1.061976 1.156771
  C -0.919057 -0.189508 0.292891
  O 0.284627 0.044079 0.556199
  C -1.402457 -0.494672 -1.052442
  H -1.932945 0.065982 3.569047
  H -0.640592 1.002047 2.818764
  H -0.495139 -0.754523 2.959215
  H -2.469500 -1.024721 1.410075
  H -2.305914 2.000223 1.102500
  H -3.557085 1.120439 1.979792
  H -3.405749 0.918456 0.234084
  H -2.426489 -0.850042 -1.056828
  H -0.752837 -1.215307 -1.547745
  H -1.349956 0.419886 -1.651364
  O 2.647366 0.005393 -0.586937
  H 1.088353 -0.084754 0.027557
  H 3.031810 0.879592 -0.530031
  H 2.703632 -0.288293 -1.504423
 20
 3.715704
  C -1.280546 0.056707 2.823213
  C -1.908539 -0.101378 1.450176
  C -2.881670 1.059630 1.142158
  C -0.903691 -0.192492 0.361086
  O 0.293160 0.032375 0.673565
  C -1.320310 -0.480403 -1.020840
  H -2.052554 0.055684 3.583947
  H -0.735802 0.991930 2.891904
  H -0.595601 -0.755325 3.029950
  H -2.500982 -1.023473 1.406336
  H -2.338152 2.004122 1.116801
  H -3.623169 1.107449 1.938882
  H -3.392592 0.909287 0.200714
  H -2.334818 -0.838762 -1.084528
  H -0.649037 -1.197932 -1.486877
  H -1.235984 0.435844 -1.611294
  O 2.700085 -0.008100 -0.787841
  H 0.987185 -0.099049 0.053929
  H 3.118698 0.857381 -0.730030
  H 2.708196 -0.244771 -1.728278
 20
 7.295302
  C -1.347893 0.044416 2.849948
  C -1.936214 -0.113601 1.457533
  C -2.922794 1.067569 1.126603
  C -0.919514 -0.196251 0.390509
  O 0.284733 0.018580 0.718686
  C -1.304302 -0.478291 -0.993688
  H -2.142161 0.042600 3.589034
  H -0.805270 0.980549 2.933148
  H -0.666598 -0.765593 3.075910
  H -2.537263 -1.028455 1.399546
  H -2.381493 2.009019 1.118696
  H -3.676118 1.107114 1.906478
  H -3.412878 0.917466 0.177808
  H -2.315578 -0.842606 -1.081180
  H -0.621339 -1.193888 -1.444896
  H -1.210658 0.439164 -1.579700
  O 2.821656 -0.002365 -0.936292
  H 0.917183 -0.087980 0.066659
  H 3.251014 0.859467 -0.867901
  H 2.822656 -0.207805 -1.878378
 20
 9.818009
  C -1.414615 0.044431 2.869437
  C -1.990621 -0.118790 1.470779
  C -2.966961 1.051232 1.118825
  C -0.968035 -0.200467 0.412501
  O 0.242552 -0.003378 0.751806
  C -1.338861 -0.463990 -0.977042
  H -2.215629 0.049423 3.601725
  H -0.868568 0.983061 2.952803
  H -0.730828 -0.769518 3.106391
  H -2.603217 -1.023111 1.399702
  H -2.428258 1.990880 1.118883
  H -3.729217 1.085767 1.884630
  H -3.441294 0.890153 0.162292
  H -2.345986 -0.836498 -1.077431
  H -0.658454 -1.182514 -1.418020
  H -1.244554 0.449151 -1.554773
  O 3.032416 0.016537 -1.077450
  H 0.839539 -0.070968 0.081603
  H 3.475033 0.864283 -0.974891
  H 3.054825 -0.170829 -2.022628
 20
 12.298065
  C -1.464758 0.039134 2.872474
  C -2.041331 -0.130076 1.479187
  C -3.027958 1.057585 1.114038
  C -1.029816 -0.216891 0.414308
  O 0.183856 -0.016497 0.739011
  C -1.416929 -0.475821 -0.970478
  H -2.263123 0.047851 3.608714
  H -0.908012 0.973809 2.948013
  H -0.780345 -0.778027 3.108819
  H -2.669891 -1.028660 1.400903
  H -2.481209 1.994051 1.106394
  H -3.787349 1.096262 1.886026
  H -3.502114 0.886647 0.156954
  H -2.433867 -0.846510 -1.060682
  H -0.737624 -1.197197 -1.421292
  H -1.325263 0.440654 -1.552984
  O 3.291364 0.053908 -1.151773
  H 0.785299 -0.056792 0.083686
  H 3.718435 0.909307 -1.031184
  H 3.351712 -0.137025 -2.095768
