14

H 1.5378617557788699 0.036861683937735104 0.05190461143270323
C 2.607737 0.044036 0.037225
C 3.323233 0.540084 -0.978533
C 4.760906 0.54997 -0.998778
C 5.480769 1.048472 -2.019545
C 6.919234 1.057283 -2.0376
C 7.637182 1.552465 -3.051583
H 8.706766231028588 1.5655527637682023 -3.078383805482875
H 3.107114 -0.377035 0.899433
H 2.812024 0.958915 -1.836177
H 5.265144 0.129677 -0.138152
H 4.977072 1.468852 -2.880367
H 7.425963 0.637437 -1.177884
H 7.138791 1.974169 -3.915085
