 14
 0.000000
  H 1.536640 0.038522 0.048506
  C 2.611106 0.044251 0.036783
  C 3.323478 0.538567 -0.975428
  C 4.761353 0.550093 -0.999031
  C 5.480988 1.048278 -2.019149
  C 6.919068 1.058923 -2.040957
  C 7.633099 1.552511 -3.051676
  H 8.707355 1.563277 -3.073721
  H 3.105813 -0.376599 0.898543
  H 2.813303 0.957573 -1.833430
  H 5.266406 0.130081 -0.138980
  H 4.976368 1.468357 -2.879351
  H 7.425685 0.639057 -1.181203
  H 7.139135 1.973850 -3.914433
 14
 13.086073
  H 1.473968 0.004872 0.117413
  C 2.545270 0.004669 0.117833
  C 3.345948 0.557209 -1.013602
  C 4.766835 0.562918 -1.025294
  C 5.498483 1.060200 -2.043562
  C 6.933681 1.066771 -2.057027
  C 7.657305 1.558156 -3.063234
  H 8.732609 1.562290 -3.071701
  H 3.037657 -0.414115 0.975366
  H 2.835008 0.973941 -1.866947
  H 5.264836 0.141057 -0.161457
  H 5.001017 1.482036 -2.907362
  H 7.431498 0.644825 -1.193014
  H 7.175677 1.981867 -3.930850
 14
 39.393270
  H 1.442373 -0.022155 0.172776
  C 2.505059 -0.034199 0.197429
  C 3.369917 0.583190 -1.066818
  C 4.762029 0.578620 -1.057461
  C 5.507992 1.072221 -2.068194
  C 6.935955 1.072633 -2.069029
  C 7.671767 1.557177 -3.061224
  H 8.748936 1.547543 -3.041497
  H 3.027126 -0.439466 1.027293
  H 2.817475 0.984236 -1.888038
  H 5.256087 0.156411 -0.192909
  H 5.018130 1.495719 -2.935389
  H 7.420152 0.647572 -1.198644
  H 7.214259 1.984776 -3.936780
