 29
 0.000000
  C 0.968940 0.142819 0.402268
  C 2.446660 0.139498 0.394422
  C 3.231996 0.609290 1.561877
  C 2.458124 1.095369 2.784177
  C 3.412416 1.539803 3.888233
  C 3.058513 -0.326003 -0.762753
  C 4.436324 -0.411091 -0.974963
  C 5.117759 -0.862059 -2.097842
  C 4.626612 -1.385596 -3.401388
  C 3.137330 -1.504059 -3.696990
  H 2.984059 -1.902171 -4.688264
  O 6.440239 -0.855725 -2.082485
  H 0.541793 0.520894 1.323918
  H 0.583850 -0.866265 0.245378
  H 0.596250 0.756554 -0.418880
  H 3.885372 1.423496 1.228414
  H 3.890981 -0.206386 1.880227
  H 1.823359 0.296647 3.172517
  H 1.818036 1.938197 2.516565
  H 4.050887 0.718620 4.206958
  H 2.851005 1.883800 4.753555
  H 4.045485 2.358037 3.551623
  H 2.399211 -0.643669 -1.552183
  H 5.053367 -0.078584 -0.148243
  H 5.084332 -2.373543 -3.525449
  H 5.084650 -0.758172 -4.174381
  H 2.660650 -0.526369 -3.647003
  H 2.660337 -2.175386 -2.984668
  H 6.812362 -0.520137 -1.245517
 29
 5.734390
  C 0.973695 0.208560 0.431176
  C 2.395319 0.149447 0.407609
  C 3.203216 0.612038 1.560588
  C 2.448063 1.086421 2.797278
  C 3.424441 1.529202 3.881099
  C 3.025031 -0.331179 -0.774877
  C 4.398176 -0.413287 -0.968928
  C 5.104937 -0.867053 -2.093193
  C 4.633444 -1.394077 -3.406116
  C 3.150670 -1.517244 -3.719432
  H 3.035711 -1.920261 -4.722819
  O 6.427291 -0.856187 -2.059836
  H 0.522859 0.560512 1.354369
  H 0.804634 -0.828157 0.265706
  H 0.546301 0.772871 -0.406232
  H 3.844262 1.431126 1.218134
  H 3.876905 -0.195757 1.863895
  H 1.827377 0.281051 3.194196
  H 1.799484 1.928026 2.547724
  H 4.073727 0.709128 4.179762
  H 2.883597 1.866202 4.761666
  H 4.045597 2.351815 3.533747
  H 2.367946 -0.646726 -1.560566
  H 5.017355 -0.079738 -0.140491
  H 5.103246 -2.377363 -3.520996
  H 5.106429 -0.765595 -4.169056
  H 2.661440 -0.547357 -3.691224
  H 2.658452 -2.196494 -3.028734
  H 6.803682 -0.522813 -1.226896
 29
 13.588349
  C 0.948753 0.258405 0.385293
  C 2.374863 0.170423 0.396600
  C 3.202870 0.616671 1.548156
  C 2.453146 1.072357 2.807438
  C 3.434783 1.517186 3.881162
  C 3.019469 -0.322588 -0.782859
  C 4.399830 -0.417160 -0.961516
  C 5.095950 -0.869723 -2.064780
  C 4.616741 -1.392729 -3.385077
  C 3.131678 -1.498055 -3.691879
  H 3.019230 -1.898332 -4.697558
  O 6.429584 -0.872034 -2.024912
  H 0.456887 0.595229 1.290777
  H 1.043391 -0.826369 0.286647
  H 0.489034 0.666149 -0.508465
  H 3.815889 1.462583 1.190907
  H 3.904450 -0.171693 1.833082
  H 1.853598 0.253928 3.201989
  H 1.792539 1.906157 2.574329
  H 4.100305 0.703000 4.162223
  H 2.902399 1.837831 4.773016
  H 4.039595 2.352411 3.532589
  H 2.372667 -0.630933 -1.584906
  H 5.020212 -0.093950 -0.143406
  H 5.077730 -2.379368 -3.499733
  H 5.097109 -0.767212 -4.145459
  H 2.651959 -0.526914 -3.673489
  H 2.632759 -2.179888 -3.013873
  H 6.811179 -0.542536 -1.187540
 29
 21.603419
  C 0.946803 0.297890 0.384552
  C 2.370547 0.159305 0.388582
  C 3.203221 0.608951 1.552861
  C 2.449604 1.069704 2.799821
  C 3.433175 1.507775 3.881347
  C 3.008661 -0.322006 -0.787915
  C 4.384667 -0.419976 -0.962533
  C 5.085014 -0.871871 -2.068833
  C 4.619950 -1.388388 -3.386820
  C 3.137549 -1.495118 -3.705629
  H 3.034675 -1.892776 -4.713222
  O 6.414086 -0.878857 -2.029421
  H 0.464215 0.689944 1.256854
  H 1.210089 -0.779215 0.445493
  H 0.444080 0.534309 -0.547959
  H 3.805882 1.446620 1.187880
  H 3.903122 -0.177207 1.845689
  H 1.838669 0.255227 3.194664
  H 1.798469 1.912990 2.562415
  H 4.089522 0.688122 4.167640
  H 2.898626 1.835489 4.769891
  H 4.048572 2.335640 3.535003
  H 2.364636 -0.617176 -1.598812
  H 5.007488 -0.096731 -0.134546
  H 5.083572 -2.374643 -3.500151
  H 5.105233 -0.759266 -4.141116
  H 2.656001 -0.523336 -3.689236
  H 2.633802 -2.180747 -3.032669
  H 6.787616 -0.554353 -1.194749
 29
 27.049718
  C 0.939655 0.338652 0.390488
  C 2.363332 0.173426 0.385196
  C 3.196844 0.615546 1.544717
  C 2.444152 1.069169 2.797003
  C 3.430117 1.484222 3.883760
  C 3.003950 -0.314512 -0.800143
  C 4.381489 -0.417428 -0.971966
  C 5.085416 -0.871462 -2.072810
  C 4.627594 -1.395505 -3.396996
  C 3.144048 -1.505153 -3.722378
  H 3.045359 -1.907243 -4.725895
  O 6.414163 -0.877913 -2.026342
  H 0.459389 0.784820 1.234354
  H 1.344832 -0.715809 0.592246
  H 0.401947 0.416782 -0.546699
  H 3.800276 1.458511 1.181171
  H 3.892613 -0.175672 1.830549
  H 1.824438 0.258591 3.182273
  H 1.803263 1.922545 2.569322
  H 4.076957 0.654438 4.161944
  H 2.898457 1.808178 4.774836
  H 4.055107 2.308748 3.547119
  H 2.358940 -0.606510 -1.604844
  H 5.000957 -0.095448 -0.144877
  H 5.091918 -2.380579 -3.504066
  H 5.114808 -0.768702 -4.150764
  H 2.660880 -0.530216 -3.713020
  H 2.636659 -2.189299 -3.045247
  H 6.781908 -0.545648 -1.183400
 29
 32.042227
  C 0.944648 0.362489 0.362408
  C 2.361778 0.168901 0.361093
  C 3.195331 0.610037 1.530890
  C 2.438623 1.061607 2.780122
  C 3.421998 1.463940 3.878482
  C 3.006278 -0.316798 -0.808406
  C 4.388847 -0.411957 -0.975378
  C 5.092166 -0.866067 -2.074717
  C 4.622716 -1.392807 -3.384086
  C 3.133985 -1.500576 -3.678154
  H 3.011687 -1.907611 -4.680367
  O 6.435805 -0.869410 -2.039797
  H 0.462013 0.830380 1.202462
  H 1.453449 -0.671848 0.625088
  H 0.397808 0.370560 -0.568363
  H 3.801142 1.445203 1.178947
  H 3.887272 -0.191331 1.819065
  H 1.807479 0.250699 3.158812
  H 1.805612 1.923245 2.553644
  H 4.059886 0.629504 4.156656
  H 2.887294 1.787260 4.767835
  H 4.055073 2.284122 3.551590
  H 2.374130 -0.617706 -1.619197
  H 5.016429 -0.077123 -0.135329
  H 5.085536 -2.380473 -3.494893
  H 5.097798 -0.767832 -4.148687
  H 2.652856 -0.520802 -3.661793
  H 2.639042 -2.182874 -2.984434
  H 6.802763 -0.537001 -1.212280
 29
 34.562744
  C 0.939378 0.388681 0.366073
  C 2.356705 0.161754 0.383280
  C 3.202550 0.610346 1.543694
  C 2.442632 1.077485 2.788576
  C 3.424220 1.463376 3.893678
  C 3.000490 -0.329693 -0.810308
  C 4.375391 -0.423586 -0.979646
  C 5.085342 -0.868076 -2.079863
  C 4.630386 -1.392973 -3.403996
  C 3.149312 -1.511694 -3.717462
  H 3.044975 -1.914493 -4.721394
  O 6.422916 -0.862919 -2.034390
  H 0.445424 0.878972 1.183252
  H 1.524571 -0.642363 0.709207
  H 0.378970 0.280455 -0.549140
  H 3.820804 1.439169 1.189398
  H 3.879941 -0.198116 1.835019
  H 1.794986 0.282697 3.163177
  H 1.829533 1.947394 2.555479
  H 4.042781 0.618120 4.177797
  H 2.889460 1.798522 4.776846
  H 4.074961 2.269570 3.570231
  H 2.349383 -0.621218 -1.609535
  H 4.990260 -0.098350 -0.152070
  H 5.101525 -2.375765 -3.515749
  H 5.108046 -0.759684 -4.159552
  H 2.660489 -0.537789 -3.702498
  H 2.651925 -2.199361 -3.034325
  H 6.782943 -0.529983 -1.196218
 29
 37.968757
  C 0.936761 0.396799 0.341125
  C 2.347984 0.145833 0.378334
  C 3.204359 0.604460 1.542426
  C 2.448092 1.081662 2.794722
  C 3.439746 1.464585 3.906238
  C 2.991612 -0.339939 -0.813866
  C 4.365038 -0.428655 -0.977626
  C 5.081501 -0.866035 -2.073585
  C 4.635554 -1.390763 -3.405386
  C 3.151044 -1.516711 -3.728632
  H 3.056321 -1.915003 -4.726762
  O 6.411609 -0.853712 -2.018496
  H 0.436009 0.885612 1.151345
  H 1.581026 -0.632937 0.715175
  H 0.371741 0.246534 -0.575856
  H 3.824812 1.428611 1.185607
  H 3.875697 -0.203778 1.831815
  H 1.794580 0.294729 3.171865
  H 1.841610 1.955277 2.561284
  H 4.058362 0.605915 4.194617
  H 2.903382 1.809681 4.799191
  H 4.104036 2.273056 3.577575
  H 2.340460 -0.629262 -1.609514
  H 4.978556 -0.100768 -0.138143
  H 5.110864 -2.368308 -3.517291
  H 5.113233 -0.753911 -4.155798
  H 2.653057 -0.535888 -3.714326
  H 2.648874 -2.215340 -3.043046
  H 6.764739 -0.520104 -1.174133
 29
 40.684590
  C 0.940651 0.419559 0.346770
  C 2.352363 0.139368 0.399133
  C 3.209824 0.604388 1.553337
  C 2.453473 1.076552 2.783676
  C 3.425332 1.455261 3.882079
  C 3.000964 -0.344837 -0.805580
  C 4.371799 -0.431461 -0.971190
  C 5.089785 -0.866654 -2.072902
  C 4.640309 -1.386458 -3.399473
  C 3.142073 -1.512274 -3.717161
  H 3.038247 -1.912345 -4.725188
  O 6.425117 -0.854403 -2.023799
  H 0.436226 0.900500 1.158603
  H 1.635486 -0.632788 0.741897
  H 0.384728 0.247226 -0.557104
  H 3.834313 1.436640 1.193684
  H 3.887384 -0.209715 1.850861
  H 1.796428 0.287579 3.158857
  H 1.845878 1.952978 2.543046
  H 4.033879 0.607877 4.170632
  H 2.892328 1.796627 4.757561
  H 4.082179 2.251980 3.559084
  H 2.340057 -0.635808 -1.606193
  H 4.979062 -0.109986 -0.142813
  H 5.120753 -2.372715 -3.516326
  H 5.118179 -0.742926 -4.154568
  H 2.648444 -0.541242 -3.697659
  H 2.647200 -2.204970 -3.036230
  H 6.780889 -0.525008 -1.184293
 29
 42.920881
  C 0.930147 0.437808 0.340460
  C 2.341746 0.126226 0.404684
  C 3.209277 0.600901 1.552099
  C 2.451633 1.080940 2.795991
  C 3.435722 1.465513 3.903167
  C 2.990257 -0.357638 -0.817206
  C 4.360923 -0.444193 -0.985343
  C 5.079721 -0.876055 -2.089891
  C 4.637854 -1.388846 -3.409491
  C 3.172561 -1.515233 -3.727612
  H 3.076550 -1.909578 -4.728064
  O 6.415615 -0.861967 -2.039899
  H 0.421959 0.911738 1.161225
  H 1.668654 -0.647394 0.751858
  H 0.372517 0.248607 -0.559628
  H 3.824577 1.425800 1.188591
  H 3.886576 -0.210869 1.848768
  H 1.795399 0.293700 3.174833
  H 1.846244 1.954450 2.555986
  H 4.045946 0.615987 4.193325
  H 2.902230 1.811525 4.784487
  H 4.094754 2.263619 3.575957
  H 2.330396 -0.641550 -1.599421
  H 4.977157 -0.121716 -0.145211
  H 5.115408 -2.365174 -3.526731
  H 5.111666 -0.746631 -4.155534
  H 2.681277 -0.552248 -3.707231
  H 2.682082 -2.204575 -3.055613
  H 6.773976 -0.532597 -1.192972
 29
 44.384449
  C 0.937384 0.453532 0.318718
  C 2.340456 0.111799 0.413244
  C 3.208799 0.600020 1.561505
  C 2.459574 1.083046 2.804632
  C 3.448694 1.466732 3.907933
  C 2.998507 -0.366409 -0.812780
  C 4.364909 -0.446987 -0.971155
  C 5.090583 -0.873521 -2.077347
  C 4.644889 -1.388992 -3.416152
  C 3.167471 -1.519710 -3.736520
  H 3.069222 -1.916116 -4.750402
  O 6.411526 -0.851172 -2.019460
  H 0.422190 0.913794 1.129686
  H 1.711954 -0.671914 0.762437
  H 0.389512 0.246988 -0.581794
  H 3.815053 1.413503 1.198529
  H 3.875613 -0.194432 1.854963
  H 1.799354 0.294690 3.189707
  H 1.851911 1.964252 2.564633
  H 4.054629 0.619647 4.196008
  H 2.922348 1.814022 4.785812
  H 4.106628 2.259295 3.578080
  H 2.324643 -0.657442 -1.614794
  H 4.971256 -0.125131 -0.127920
  H 5.122195 -2.357543 -3.538122
  H 5.115745 -0.745247 -4.160168
  H 2.670437 -0.552337 -3.711252
  H 2.676810 -2.215021 -3.061969
  H 6.760974 -0.523735 -1.172708
 29
 45.112613
  C 0.945464 0.476712 0.306206
  C 2.344198 0.098292 0.421531
  C 3.213992 0.598823 1.565924
  C 2.458030 1.076393 2.794899
  C 3.435808 1.463992 3.901340
  C 3.007075 -0.374550 -0.813505
  C 4.371705 -0.453346 -0.973366
  C 5.097390 -0.877451 -2.085388
  C 4.645158 -1.385297 -3.410959
  C 3.160540 -1.514511 -3.717990
  H 3.052499 -1.907356 -4.728004
  O 6.421202 -0.854157 -2.038026
  H 0.423633 0.929461 1.123572
  H 1.757309 -0.700973 0.775571
  H 0.401342 0.262731 -0.591177
  H 3.823218 1.426073 1.197812
  H 3.896003 -0.204454 1.870376
  H 1.800289 0.288197 3.173170
  H 1.850919 1.949826 2.550205
  H 4.050669 0.607773 4.197505
  H 2.894809 1.814069 4.785063
  H 4.100082 2.268269 3.570191
  H 2.341412 -0.659757 -1.600153
  H 4.973558 -0.136421 -0.139865
  H 5.127059 -2.363239 -3.540276
  H 5.113263 -0.736442 -4.160703
  H 2.666239 -0.552279 -3.685921
  H 2.676031 -2.208302 -3.041693
  H 6.782123 -0.527427 -1.189666
 29
 45.617098
  C 0.955264 0.503673 0.303661
  C 2.348400 0.082358 0.431419
  C 3.222919 0.592668 1.559848
  C 2.457467 1.073887 2.804407
  C 3.433433 1.467509 3.911330
  C 3.009305 -0.383035 -0.812631
  C 4.372319 -0.460479 -0.973982
  C 5.095600 -0.878630 -2.081913
  C 4.644451 -1.387816 -3.416902
  C 3.161295 -1.523205 -3.731927
  H 3.061123 -1.911425 -4.734256
  O 6.426746 -0.848587 -2.029928
  H 0.433849 0.952816 1.129243
  H 1.804940 -0.732531 0.791657
  H 0.407102 0.290732 -0.592665
  H 3.824110 1.423496 1.182780
  H 3.906722 -0.204061 1.861170
  H 1.802338 0.283211 3.183079
  H 1.845014 1.944202 2.559400
  H 4.046381 0.623177 4.205879
  H 2.895776 1.813442 4.787730
  H 4.087864 2.266677 3.582762
  H 2.334565 -0.668375 -1.601350
  H 4.988683 -0.139046 -0.124530
  H 5.131776 -2.364990 -3.546862
  H 5.113509 -0.733945 -4.164902
  H 2.660554 -0.560415 -3.701973
  H 2.675485 -2.221454 -3.059579
  H 6.785416 -0.524932 -1.185451
 29
 45.640014
  C 0.968653 0.524630 0.281068
  C 2.350581 0.063725 0.439253
  C 3.224531 0.590143 1.565160
  C 2.459781 1.065116 2.802334
  C 3.423671 1.462226 3.898866
  C 3.020884 -0.390077 -0.810935
  C 4.383947 -0.466416 -0.970533
  C 5.107677 -0.883531 -2.087985
  C 4.643685 -1.382897 -3.405804
  C 3.160221 -1.512821 -3.698793
  H 3.043717 -1.903752 -4.712376
  O 6.439656 -0.853295 -2.047241
  H 0.439289 0.965610 1.099697
  H 1.850157 -0.767758 0.799967
  H 0.425541 0.312237 -0.625037
  H 3.814203 1.421651 1.186059
  H 3.913105 -0.198676 1.868859
  H 1.814985 0.277735 3.178458
  H 1.845036 1.926068 2.559528
  H 4.043916 0.617397 4.194677
  H 2.880549 1.806550 4.777380
  H 4.077311 2.270975 3.565775
  H 2.351448 -0.670889 -1.594873
  H 4.994954 -0.152573 -0.133378
  H 5.118830 -2.342507 -3.542400
  H 5.100486 -0.737185 -4.149829
  H 2.660076 -0.541647 -3.659891
  H 2.678590 -2.216216 -3.015310
  H 6.805949 -0.536638 -1.214044
