 19
 0.000000
  C 0.915403 0.046748 0.334173
  C 2.367188 0.066897 -0.026624
  H 3.028787 0.018827 0.831233
  C 2.967480 0.133423 -1.221892
  C 2.347569 0.210176 -2.595216
  C 0.830098 0.218013 -2.728050
  H 0.570586 0.277062 -3.784130
  C 4.431351 0.133152 -1.218727
  C 5.241048 0.191936 -2.270602
  H 6.310675 0.185082 -2.144584
  H 0.806223 -0.014285 1.414947
  H 0.409925 -0.811578 -0.104601
  H 0.407116 0.947279 -0.004061
  H 2.735339 -0.638861 -3.168233
  H 2.735771 1.117372 -3.070506
  H 0.391861 1.076674 -2.229433
  H 0.391285 -0.690545 -2.328174
  H 4.879012 0.078184 -0.233312
  H 4.891092 0.248602 -3.286482
 19
 5.828308
  C 0.935496 0.063349 0.343823
  C 2.350586 0.090067 -0.007141
  H 3.031329 0.066237 0.839292
  C 2.956129 0.143496 -1.207080
  C 2.328060 0.209236 -2.591587
  C 0.803919 0.243552 -2.729335
  H 0.549186 0.296296 -3.787418
  C 4.426142 0.124308 -1.203624
  C 5.233546 0.171908 -2.251636
  H 6.301505 0.153502 -2.126298
  H 0.769339 -0.025152 1.424901
  H 0.729853 -0.852111 -0.158873
  H 0.334213 0.891832 -0.059290
  H 2.703559 -0.654682 -3.156301
  H 2.729769 1.106134 -3.080725
  H 0.382033 1.116560 -2.244446
  H 0.340634 -0.650036 -2.323632
  H 4.876411 0.066621 -0.216717
  H 4.885711 0.231247 -3.264231
 19
 18.121096
  C 0.924289 0.053163 0.376480
  C 2.332299 0.119351 0.018404
  H 3.034346 0.137079 0.847417
  C 2.938073 0.158458 -1.202301
  C 2.324378 0.204626 -2.575992
  C 0.811425 0.279537 -2.744918
  H 0.583152 0.314171 -3.810845
  C 4.397492 0.119984 -1.201207
  C 5.207902 0.155767 -2.256989
  H 6.275819 0.121907 -2.133987
  H 0.737412 -0.047298 1.433250
  H 0.999953 -0.875261 -0.151442
  H 0.260803 0.773446 -0.070625
  H 2.685389 -0.682574 -3.115260
  H 2.755331 1.079274 -3.081120
  H 0.406980 1.181518 -2.292222
  H 0.306964 -0.588955 -2.328261
  H 4.847205 0.057816 -0.218577
  H 4.857962 0.221502 -3.271126
 19
 31.699411
  C 0.902480 0.062570 0.365747
  C 2.318086 0.112910 0.000926
  H 3.016691 0.124438 0.849941
  C 2.947326 0.153869 -1.217397
  C 2.319919 0.201741 -2.593577
  C 0.810273 0.293861 -2.715332
  H 0.546377 0.327871 -3.772692
  C 4.395918 0.114728 -1.199531
  C 5.218584 0.150005 -2.246412
  H 6.284382 0.114175 -2.110887
  H 0.707077 -0.021725 1.415119
  H 1.182992 -0.857555 -0.140028
  H 0.201866 0.710474 -0.138292
  H 2.658100 -0.690558 -3.137790
  H 2.749657 1.068345 -3.113540
  H 0.438227 1.196292 -2.257014
  H 0.312333 -0.564376 -2.278485
  H 4.834511 0.050090 -0.213251
  H 4.879742 0.219443 -3.264579
 19
 43.324326
  C 0.889066 0.073108 0.398535
  C 2.302995 0.101612 -0.011573
  H 2.993777 0.099336 0.827413
  C 2.939163 0.148860 -1.224405
  C 2.325204 0.203745 -2.602430
  C 0.808424 0.304559 -2.736242
  H 0.550870 0.340163 -3.792077
  C 4.392072 0.102387 -1.198384
  C 5.218765 0.142613 -2.242789
  H 6.280930 0.114961 -2.104792
  H 0.718485 0.020645 1.458591
  H 1.319337 -0.838838 -0.072905
  H 0.152411 0.640623 -0.135546
  H 2.663125 -0.690394 -3.144416
  H 2.763903 1.067638 -3.117442
  H 0.437196 1.214535 -2.278630
  H 0.303445 -0.552547 -2.302867
  H 4.827713 0.036109 -0.213575
  H 4.881733 0.219660 -3.257023
 19
 50.777702
  C 0.878154 0.079467 0.388837
  C 2.296039 0.091540 -0.020614
  H 2.975298 0.088533 0.829690
  C 2.946957 0.148746 -1.236248
  C 2.326755 0.213404 -2.612271
  C 0.807114 0.319745 -2.719499
  H 0.529068 0.360581 -3.768629
  C 4.391720 0.099128 -1.201246
  C 5.226367 0.136091 -2.239594
  H 6.294476 0.092591 -2.093043
  H 0.698317 0.099407 1.447119
  H 1.449353 -0.838753 0.002686
  H 0.110388 0.516586 -0.217120
  H 2.652937 -0.679232 -3.164523
  H 2.762536 1.077941 -3.128995
  H 0.447504 1.226824 -2.249253
  H 0.309683 -0.538044 -2.280555
  H 4.825363 0.025212 -0.206924
  H 4.895158 0.212417 -3.260342
 19
 56.747893
  C 0.871149 0.104613 0.406162
  C 2.289691 0.066787 -0.017235
  H 2.972141 0.064497 0.831809
  C 2.946513 0.142942 -1.243793
  C 2.329711 0.220917 -2.616583
  C 0.810217 0.323958 -2.728680
  H 0.536178 0.375964 -3.777360
  C 4.388289 0.092176 -1.204140
  C 5.228947 0.131163 -2.241139
  H 6.294630 0.086059 -2.090523
  H 0.687397 0.168736 1.467046
  H 1.532617 -0.839822 0.065797
  H 0.087728 0.438549 -0.234956
  H 2.658483 -0.661966 -3.178566
  H 2.764313 1.090788 -3.119681
  H 0.444997 1.225094 -2.248147
  H 0.316993 -0.541248 -2.303507
  H 4.820162 0.014533 -0.210414
  H 4.902538 0.208080 -3.259900
 19
 61.619584
  C 0.870441 0.140095 0.421886
  C 2.287465 0.044967 -0.009469
  H 2.974265 0.051047 0.836487
  C 2.947080 0.139972 -1.244746
  C 2.333877 0.224273 -2.615141
  C 0.814095 0.322292 -2.736066
  H 0.545803 0.379824 -3.790512
  C 4.383914 0.083990 -1.202753
  C 5.229184 0.127888 -2.239336
  H 6.292518 0.082914 -2.085510
  H 0.682300 0.199741 1.474291
  H 1.596904 -0.845760 0.086511
  H 0.077086 0.406552 -0.235399
  H 2.667538 -0.650848 -3.181958
  H 2.767375 1.097198 -3.108819
  H 0.439401 1.224384 -2.248545
  H 0.322063 -0.551162 -2.319736
  H 4.813908 0.001700 -0.212566
  H 4.904353 0.211923 -3.262187
 19
 65.554705
  C 0.874449 0.172057 0.406779
  C 2.289229 0.027875 -0.001152
  H 2.968567 0.043842 0.853603
  C 2.953934 0.133830 -1.239365
  C 2.331885 0.222998 -2.612523
  C 0.812425 0.320906 -2.722150
  H 0.537380 0.380807 -3.768490
  C 4.388270 0.073560 -1.199845
  C 5.233708 0.125051 -2.235215
  H 6.299727 0.089955 -2.080494
  H 0.663172 0.214703 1.459292
  H 1.660032 -0.863059 0.064558
  H 0.090737 0.411565 -0.273779
  H 2.661862 -0.648422 -3.184002
  H 2.763220 1.099191 -3.108697
  H 0.445163 1.210818 -2.237707
  H 0.317888 -0.556892 -2.302311
  H 4.821322 -0.011215 -0.210010
  H 4.909754 0.220254 -3.254166
 19
 66.935494
  C 0.881422 0.233330 0.423488
  C 2.283939 0.005018 0.009651
  H 2.971073 0.027436 0.855600
  C 2.957204 0.135074 -1.243890
  C 2.332296 0.225651 -2.614924
  C 0.818307 0.310366 -2.726067
  H 0.543656 0.369429 -3.780448
  C 4.385431 0.073646 -1.197963
  C 5.238251 0.128526 -2.231272
  H 6.302794 0.082235 -2.070700
  H 0.662446 0.224255 1.471662
  H 1.705112 -0.907014 0.048865
  H 0.082308 0.430528 -0.260060
  H 2.669283 -0.640827 -3.193521
  H 2.755306 1.108857 -3.106061
  H 0.439706 1.204222 -2.234335
  H 0.335607 -0.571396 -2.309669
  H 4.815700 -0.020981 -0.207461
  H 4.918864 0.225888 -3.254361
 19
 68.070152
  C 0.885979 0.276547 0.413879
  C 2.283985 -0.014057 0.011636
  H 2.972561 0.010676 0.867283
  C 2.960798 0.129045 -1.242120
  C 2.341159 0.223076 -2.603577
  C 0.825765 0.304866 -2.715034
  H 0.552962 0.364171 -3.764528
  C 4.376159 0.063309 -1.197957
  C 5.232431 0.127590 -2.233328
  H 6.293982 0.092360 -2.071707
  H 0.653733 0.237870 1.451321
  H 1.756701 -0.937586 0.016352
  H 0.094455 0.451988 -0.278186
  H 2.683252 -0.645179 -3.188609
  H 2.759742 1.101720 -3.086750
  H 0.443758 1.199331 -2.222572
  H 0.341150 -0.584961 -2.296080
  H 4.808681 -0.034298 -0.205414
  H 4.912881 0.238246 -3.256785
 19
 66.038470
  C 0.902958 0.336384 0.421422
  C 2.269675 -0.033763 0.023611
  H 2.959259 0.007318 0.870947
  C 2.965810 0.131906 -1.245983
  C 2.339420 0.224450 -2.609133
  C 0.822140 0.299022 -2.716614
  H 0.545016 0.349427 -3.766507
  C 4.378646 0.056498 -1.193788
  C 5.241552 0.126880 -2.226253
  H 6.308627 0.087371 -2.058146
  H 0.655536 0.250232 1.460653
  H 1.824053 -1.012349 -0.014671
  H 0.101542 0.468335 -0.272299
  H 2.682373 -0.639967 -3.195321
  H 2.754155 1.104581 -3.094072
  H 0.438506 1.191730 -2.229733
  H 0.345983 -0.584949 -2.291074
  H 4.807548 -0.051444 -0.204177
  H 4.927713 0.247730 -3.244957
 19
 64.311032
  C 0.919112 0.386474 0.427769
  C 2.255728 -0.056596 0.027010
  H 2.951442 -0.008418 0.870355
  C 2.967712 0.122675 -1.250499
  C 2.341758 0.216208 -2.610595
  C 0.824461 0.291735 -2.715772
  H 0.544460 0.333361 -3.766328
  C 4.373975 0.031883 -1.191326
  C 5.244483 0.118512 -2.220750
  H 6.310196 0.105919 -2.043239
  H 0.663032 0.268899 1.462472
  H 1.895705 -1.074252 -0.056954
  H 0.111762 0.504459 -0.263380
  H 2.683796 -0.648931 -3.198182
  H 2.757182 1.095566 -3.095577
  H 0.442745 1.188697 -2.234880
  H 0.349155 -0.588166 -2.279893
  H 4.799201 -0.075809 -0.201018
  H 4.935510 0.275927 -3.236738
