 11
 0.000000
  H 2.583764 0.034236 0.528837
  C 3.272663 -0.013089 1.367620
  C 2.538508 -0.088270 2.699956
  C 3.514578 -0.154228 3.868963
  H 3.910967 0.868568 1.342851
  H 3.910954 -0.886338 1.243831
  H 1.898330 -0.973069 2.717616
  H 1.898315 0.788933 2.817038
  H 4.150241 -1.033381 3.787579
  H 2.976891 -0.207510 4.813203
  H 4.150236 0.728496 3.886992
 11
 7.118115
  H 2.604449 0.038492 0.453497
  C 3.305951 -0.008084 1.278983
  C 2.511131 -0.091626 2.759460
  C 3.501101 -0.156633 3.911593
  H 3.939992 0.873337 1.250370
  H 3.939990 -0.880681 1.151396
  H 1.873791 -0.975426 2.779710
  H 1.873782 0.784286 2.879004
  H 4.136301 -1.035276 3.821666
  H 2.975566 -0.210293 4.862543
  H 4.136298 0.726549 3.921077
 11
 21.397072
  H 2.600554 0.040946 0.410126
  C 3.345492 -0.003580 1.199031
  C 2.476450 -0.095060 2.820290
  C 3.494766 -0.157891 3.933902
  H 3.966782 0.889474 1.217541
  H 3.966790 -0.893020 1.116960
  H 1.846514 -0.987026 2.804594
  H 1.846503 0.793015 2.905029
  H 4.129811 -1.031673 3.826416
  H 2.989394 -0.212535 4.902279
  H 4.129813 0.722433 3.925389
 11
 37.513902
  H 2.595649 0.042939 0.374796
  C 3.385417 0.001212 1.114218
  C 2.453756 -0.098562 2.882402
  C 3.485613 -0.159450 3.961538
  H 3.982450 0.903581 1.170225
  H 3.982458 -0.901716 1.068358
  H 1.836186 -0.990059 2.825315
  H 1.836180 0.793695 2.925957
  H 4.116562 -1.031592 3.846023
  H 2.996552 -0.214604 4.938999
  H 4.116559 0.720143 3.944865
 11
 54.341958
  H 2.614521 0.047111 0.300877
  C 3.416021 0.006416 1.022018
  C 2.426269 -0.101777 2.939366
  C 3.474557 -0.161991 4.006543
  H 4.006756 0.908409 1.082222
  H 4.006767 -0.896617 0.980369
  H 1.811989 -0.995964 2.875583
  H 1.811983 0.793906 2.976570
  H 4.106722 -1.037651 3.883660
  H 2.997392 -0.217597 4.992000
  H 4.106728 0.721937 3.982946
 11
 70.082237
  H 2.627399 0.051104 0.230050
  C 3.447620 0.011544 0.931101
  C 2.401327 -0.105100 2.998247
  C 3.462953 -0.164254 4.046653
  H 4.032154 0.917393 1.002265
  H 4.032156 -0.896541 0.899911
  H 1.792096 -1.000180 2.924710
  H 1.792088 0.792571 3.025858
  H 4.092669 -1.038359 3.916544
  H 3.000353 -0.220159 5.037416
  H 4.092671 0.718937 4.015699
 11
 83.606575
  H 2.642275 0.055086 0.159485
  C 3.478738 0.016740 0.839064
  C 2.376963 -0.108380 3.056391
  C 3.451433 -0.166489 4.086251
  H 4.056204 0.924667 0.921974
  H 4.056211 -0.894740 0.819311
  H 1.772100 -1.005882 2.972634
  H 1.772084 0.792853 3.074118
  H 4.080108 -1.041415 3.948356
  H 3.001944 -0.222916 5.086282
  H 4.080101 0.718389 4.047651
 11
 94.760237
  H 2.657060 0.059146 0.087564
  C 3.509221 0.021966 0.746455
  C 2.352935 -0.111648 3.114304
  C 3.439760 -0.168747 4.126276
  H 4.080095 0.932027 0.841436
  H 4.080101 -0.892992 0.738456
  H 1.753357 -1.010181 3.020545
  H 1.753351 0.791726 3.122209
  H 4.066404 -1.043277 3.981036
  H 3.005150 -0.225542 5.132812
  H 4.066407 0.716570 4.080335
 11
 103.652063
  H 2.673245 0.063274 0.014364
  C 3.539164 0.027237 0.653025
  C 2.329321 -0.114888 3.171729
  C 3.428106 -0.171016 4.166498
  H 4.103606 0.938583 0.759522
  H 4.103606 -0.890285 0.656326
  H 1.734628 -1.014970 3.068412
  H 1.734622 0.791100 3.170309
  H 4.053228 -1.046108 4.013684
  H 3.008160 -0.228241 5.180673
  H 4.053226 0.715706 4.113093
 11
 110.526112
  H 2.689958 0.067511 -0.060691
  C 3.568587 0.032550 0.558912
  C 2.306159 -0.118109 3.228815
  C 3.416486 -0.173308 4.207135
  H 4.127179 0.945008 0.676240
  H 4.127184 -0.887305 0.572850
  H 1.716518 -1.019143 3.116632
  H 1.716512 0.789822 3.218692
  H 4.039660 -1.048461 4.046937
  H 3.011860 -0.230895 5.227720
  H 4.039655 0.714302 4.146399
 11
 115.684243
  H 2.707673 0.071845 -0.137557
  C 3.597539 0.037904 0.463994
  C 2.283556 -0.121308 3.285465
  C 3.405020 -0.175616 4.247987
  H 4.150762 0.951074 0.591167
  H 4.150762 -0.883757 0.487634
  H 1.698614 -1.023440 3.165123
  H 1.698599 0.788643 3.267358
  H 4.026410 -1.051163 4.080357
  H 3.015562 -0.233570 5.275064
  H 4.026413 0.713230 4.179911
 11
 119.443019
  H 2.725975 0.076305 -0.216494
  C 3.626076 0.043313 0.368212
  C 2.261620 -0.124475 3.341641
  C 3.393837 -0.177927 4.288999
  H 4.174513 0.957038 0.504254
  H 4.174518 -0.879911 0.400602
  H 1.681205 -1.027456 3.213891
  H 1.681205 0.787136 3.316270
  H 4.013269 -1.053639 4.114085
  H 3.019557 -0.236205 5.321824
  H 4.013270 0.711898 4.213703
 11
 122.099483
  H 2.744996 0.080873 -0.297543
  C 3.654235 0.048775 0.271370
  C 2.240488 -0.127613 3.397188
  C 3.383095 -0.180238 4.329900
  H 4.198418 0.962878 0.415245
  H 4.198417 -0.875695 0.311501
  H 1.664267 -1.031441 3.262749
  H 1.664253 0.785610 3.365263
  H 4.000630 -1.056207 4.147766
  H 3.023666 -0.238825 5.368214
  H 4.000629 0.710656 4.247457
 11
 123.885229
  H 2.764525 0.085586 -0.380971
  C 3.682092 0.054318 0.173204
  C 2.220352 -0.130696 3.451884
  C 3.373021 -0.182518 4.370350
  H 4.222549 0.968701 0.323926
  H 4.222554 -0.871214 0.220107
  H 1.648044 -1.035254 3.311454
  H 1.648044 0.783911 3.414090
  H 3.988581 -1.058621 4.181109
  H 3.028210 -0.241385 5.413635
  H 3.988580 0.709307 4.280861
