 12
 0.000000
  H 1.406057 0.058385 0.100998
  C 2.485109 0.062376 0.030230
  C 3.239462 -0.010682 1.325029
  H 2.574225 -0.059039 2.182048
  C 3.072681 0.129004 -1.150534
  C 2.373463 0.203268 -2.466635
  H 1.290385 0.197984 -2.372988
  H 4.153683 0.132763 -1.217131
  H 3.881036 0.863031 1.439551
  H 3.881044 -0.891732 1.340537
  H 2.670472 -0.641373 -3.089562
  H 2.670474 1.112623 -2.990587
 12
 13.956861
  H 1.384163 0.054677 0.174080
  C 2.459181 0.058210 0.107676
  C 3.232447 -0.014498 1.379900
  H 2.574265 -0.062748 2.244146
  C 3.100990 0.133862 -1.226174
  C 2.377595 0.206144 -2.520485
  H 1.297495 0.197013 -2.392803
  H 4.177668 0.137641 -1.297124
  H 3.871794 0.862563 1.484055
  H 3.873844 -0.895554 1.388311
  H 2.661133 -0.639340 -3.146781
  H 2.658291 1.117844 -3.049795
 12
 42.033408
  H 1.359224 0.053914 0.192922
  C 2.430266 0.055130 0.172562
  C 3.226881 -0.015765 1.421864
  H 2.568781 -0.064779 2.280852
  C 3.148429 0.138530 -1.301152
  C 2.377146 0.208217 -2.557564
  H 1.306680 0.197453 -2.376348
  H 4.219364 0.140417 -1.332079
  H 3.870889 0.860120 1.531705
  H 3.872182 -0.899091 1.432619
  H 2.632315 -0.642996 -3.205414
  H 2.628019 1.123927 -3.101601
 12
 73.874508
  H 1.333082 0.049872 0.257116
  C 2.404211 0.050533 0.246779
  C 3.218418 -0.018774 1.472432
  H 2.568163 -0.068538 2.345980
  C 3.179612 0.142237 -1.376000
  C 2.379571 0.210299 -2.606887
  H 1.312963 0.197407 -2.396146
  H 4.252376 0.143700 -1.399211
  H 3.864512 0.854996 1.573019
  H 3.864623 -0.898027 1.473728
  H 2.616342 -0.633899 -3.258235
  H 2.613619 1.124053 -3.159101
 12
 104.670313
  H 1.306355 0.046647 0.319066
  C 2.375509 0.046504 0.321381
  C 3.210335 -0.021861 1.528188
  H 2.572886 -0.072029 2.409694
  C 3.208276 0.146687 -1.450297
  C 2.380560 0.213418 -2.658258
  H 1.319869 0.198922 -2.420134
  H 4.277909 0.147571 -1.463364
  H 3.860364 0.852798 1.620961
  H 3.860393 -0.901762 1.520985
  H 2.601681 -0.633349 -3.319663
  H 2.598710 1.129372 -3.219109
 12
 132.109972
  H 1.279818 0.043003 0.385277
  C 2.348309 0.042221 0.397044
  C 3.202057 -0.024995 1.582666
  H 2.577630 -0.075748 2.475711
  C 3.234567 0.150978 -1.525244
  C 2.382494 0.216287 -2.709693
  H 1.327785 0.200270 -2.446599
  H 4.304479 0.151420 -1.531119
  H 3.854080 0.849020 1.665823
  H 3.853763 -0.903257 1.565690
  H 2.587540 -0.629445 -3.377068
  H 2.584737 1.132060 -3.276928
 12
 155.509121
  H 1.254251 0.039232 0.454176
  C 2.321372 0.037866 0.473718
  C 3.194038 -0.028311 1.640268
  H 2.583707 -0.079616 2.544479
  C 3.258814 0.155310 -1.600110
  C 2.384265 0.219360 -2.764076
  H 1.334874 0.202000 -2.478135
  H 4.327151 0.155364 -1.600391
  H 3.848407 0.846487 1.713815
  H 3.847869 -0.906401 1.613515
  H 2.574274 -0.627115 -3.437657
  H 2.571566 1.136506 -3.337551
 12
 174.737177
  H 1.228914 0.035235 0.527070
  C 2.295464 0.033386 0.551361
  C 3.186044 -0.031724 1.699142
  H 2.591018 -0.083556 2.614759
  C 3.280356 0.159727 -1.675526
  C 2.386284 0.222541 -2.819969
  H 1.342674 0.204008 -2.513325
  H 4.348790 0.159489 -1.673206
  H 3.841610 0.843294 1.762454
  H 3.840936 -0.908975 1.662244
  H 2.561793 -0.623989 -3.498184
  H 2.559172 1.140086 -3.398155
 12
 190.066788
  H 1.204861 0.031026 0.603392
  C 2.270492 0.028642 0.630091
  C 3.178304 -0.035320 1.760441
  H 2.598961 -0.087575 2.687458
  C 3.299867 0.164298 -1.750963
  C 2.388213 0.225863 -2.878558
  H 1.349616 0.206338 -2.553056
  H 4.367612 0.163710 -1.748486
  H 3.834890 0.840572 1.813405
  H 3.834136 -0.912279 1.713472
  H 2.550190 -0.621210 -3.560821
  H 2.547742 1.144270 -3.461002
 12
 200.933758
  H 1.180484 0.024263 0.721867
  C 2.253913 0.022903 0.716758
  C 3.166342 -0.039815 1.834636
  H 2.614431 -0.093080 2.787366
  C 3.302470 0.169301 -1.828777
  C 2.392602 0.229833 -2.949120
  H 1.353065 0.210487 -2.620895
  H 4.378715 0.169460 -1.859177
  H 3.819675 0.834902 1.865011
  H 3.819392 -0.912400 1.766825
  H 2.553487 -0.615114 -3.630530
  H 2.551651 1.146427 -3.532025
 12
 188.854935
  H 1.211920 0.000364 1.097015
  C 2.291610 0.018505 0.843948
  C 3.118571 -0.048288 2.044198
  H 2.634657 -0.111625 3.027867
  C 3.215006 0.196402 -1.916568
  C 2.400155 0.234334 -3.123379
  H 1.333945 0.222920 -2.899090
  H 4.283097 0.170872 -2.219446
  H 3.787742 0.827121 2.005560
  H 3.783440 -0.913557 1.901628
  H 2.649211 -0.592556 -3.797872
  H 2.641613 1.141847 -3.678088
 12
 185.818852
  H 1.170884 0.065876 1.187833
  C 2.240445 0.027541 0.913188
  C 3.099036 -0.072795 2.082444
  H 2.651591 -0.141964 3.079767
  C 3.308965 0.392966 -2.024539
  C 2.414846 0.197884 -3.156965
  H 1.369417 0.158970 -2.858389
  H 4.336489 0.094604 -2.315184
  H 3.754784 0.796605 2.024625
  H 3.778822 -0.916324 1.907507
  H 2.652457 -0.603357 -3.865301
  H 2.573230 1.146333 -3.689214
