 16
 0.000000
  C 0.983198 0.141317 0.401972
  C 2.434265 0.086409 0.267867
  H 3.044001 0.419308 1.096890
  C 3.062258 -0.370387 -0.868975
  C 4.460130 -0.413743 -0.979781
  C 5.163474 -0.854993 -2.080854
  C 4.618247 -1.356571 -3.330235
  H 3.535937 -1.374891 -3.374414
  H 6.244162 -0.828329 -2.016704
  H 0.665153 0.528060 1.364191
  H 0.550563 -0.851118 0.240922
  H 0.552127 0.747574 -0.401009
  H 2.448391 -0.702819 -1.695373
  H 5.028965 -0.070452 -0.126054
  H 5.018197 -2.358365 -3.519221
  H 5.017279 -0.762726 -4.159311
 16
 1.085770
  C 0.982452 0.154517 0.356561
  C 2.436038 0.044055 0.298014
  H 3.014407 0.288697 1.180561
  C 3.108464 -0.366080 -0.826274
  C 4.505873 -0.399103 -0.933812
  C 5.145817 -0.814883 -2.078435
  C 4.561014 -1.377753 -3.290443
  H 3.480334 -1.485523 -3.289581
  H 6.226472 -0.722816 -2.116637
  H 0.625311 0.496691 1.322316
  H 0.522692 -0.809156 0.113243
  H 0.620510 0.818707 -0.434159
  H 2.587883 -0.657989 -1.727092
  H 5.103929 -0.050445 -0.106515
  H 5.020438 -2.354199 -3.475993
  H 4.877850 -0.776996 -4.148780
 16
 2.204740
  C 0.996861 0.166929 0.334191
  C 2.438230 -0.040513 0.295916
  H 2.989725 -0.019268 1.228164
  C 3.125131 -0.301712 -0.866293
  C 4.528371 -0.321563 -0.952771
  C 5.180542 -0.747418 -2.082621
  C 4.556481 -1.422493 -3.220584
  H 3.488795 -1.591261 -3.140865
  H 6.243364 -0.640658 -2.250650
  H 0.639208 0.427319 1.323234
  H 0.477596 -0.733732 -0.007526
  H 0.702747 0.931177 -0.389920
  H 2.571430 -0.472188 -1.786212
  H 5.104348 0.052837 -0.116473
  H 5.049723 -2.390005 -3.357154
  H 4.795158 -0.879408 -4.138836
 16
 3.257221
  C 0.999202 0.215816 0.321328
  C 2.422494 -0.098528 0.302959
  H 2.938619 -0.197718 1.251072
  C 3.130331 -0.316451 -0.853775
  C 4.528146 -0.306122 -0.963631
  C 5.180940 -0.764047 -2.082233
  C 4.565277 -1.435639 -3.226549
  H 3.551147 -1.780771 -3.065234
  H 6.251741 -0.638331 -2.187460
  H 0.665068 0.544914 1.300945
  H 0.412433 -0.667411 0.044666
  H 0.758529 0.956892 -0.443306
  H 2.595287 -0.559729 -1.761558
  H 5.105918 0.127520 -0.157865
  H 5.184262 -2.295517 -3.498093
  H 4.615819 -0.788297 -4.105123
 16
 7.371217
  C 1.000758 0.267829 0.261983
  C 2.393561 -0.160856 0.295236
  H 2.825043 -0.398452 1.261000
  C 3.164767 -0.324633 -0.828123
  C 4.563723 -0.281794 -0.941190
  C 5.181786 -0.763427 -2.067549
  C 4.528219 -1.444664 -3.190175
  H 3.630035 -1.995520 -2.929471
  H 6.247477 -0.633810 -2.201878
  H 0.677302 0.649412 1.226018
  H 0.357212 -0.588613 0.029320
  H 0.825128 0.994228 -0.529825
  H 2.703672 -0.644577 -1.759671
  H 5.150519 0.198614 -0.172277
  H 5.228603 -2.160053 -3.626048
  H 4.331371 -0.728072 -3.990984
 16
 18.198460
  C 1.015114 0.284041 0.203637
  C 2.366892 -0.263874 0.275215
  H 2.655777 -0.724486 1.215080
  C 3.240683 -0.282189 -0.776840
  C 4.628506 -0.173620 -0.944979
  C 5.186142 -0.698124 -2.080326
  C 4.436183 -1.439850 -3.112867
  H 3.715031 -2.161206 -2.739276
  H 6.239569 -0.571500 -2.279980
  H 0.659489 0.544573 1.196956
  H 0.319866 -0.467518 -0.184647
  H 0.965081 1.140766 -0.463579
  H 2.878132 -0.729955 -1.715090
  H 5.230584 0.379068 -0.239093
  H 5.159020 -2.104304 -3.606469
  H 4.093421 -0.796170 -3.919133
 16
 27.996678
  C 1.041124 0.282325 0.106597
  C 2.379691 -0.301106 0.274994
  H 2.556086 -0.821852 1.212269
  C 3.346501 -0.269567 -0.682407
  C 4.720074 -0.144440 -0.905738
  C 5.197166 -0.673684 -2.065316
  C 4.319171 -1.408059 -3.022652
  H 3.666835 -2.174408 -2.596438
  H 6.225575 -0.571666 -2.389144
  H 0.615500 0.504084 1.083483
  H 0.363918 -0.422960 -0.377436
  H 1.073469 1.174220 -0.516011
  H 3.021570 -0.757998 -1.685616
  H 5.354481 0.422625 -0.242338
  H 4.997709 -2.081202 -3.579454
  H 3.913133 -0.783460 -3.811431
 16
 48.982110
  C 1.062828 0.289190 0.042815
  C 2.391702 -0.330513 0.237423
  H 2.482560 -0.970640 1.113452
  C 3.418711 -0.225365 -0.615882
  C 4.765823 -0.064446 -0.912557
  C 5.207306 -0.635895 -2.065125
  C 4.234573 -1.400544 -2.909401
  H 3.638040 -2.204192 -2.448862
  H 6.213583 -0.552755 -2.436288
  H 0.573797 0.430152 1.002474
  H 0.422194 -0.362573 -0.553322
  H 1.144793 1.243820 -0.470220
  H 3.154372 -0.878267 -1.753931
  H 5.397266 0.550081 -0.288370
  H 4.854051 -2.127970 -3.472436
  H 3.813824 -0.807727 -3.719874
 16
 60.373883
  C 1.091233 0.303714 -0.046503
  C 2.402481 -0.366126 0.227248
  H 2.382120 -1.090862 1.039651
  C 3.490382 -0.216312 -0.480055
  C 4.789281 -0.048045 -0.855224
  C 5.210312 -0.606210 -2.041844
  C 4.164446 -1.379183 -2.815668
  H 3.629387 -2.249682 -2.332476
  H 6.195887 -0.445486 -2.434985
  H 0.505992 0.362134 0.867227
  H 0.513083 -0.270885 -0.769346
  H 1.239338 1.305360 -0.442643
  H 3.306630 -1.029598 -1.933770
  H 5.436026 0.576620 -0.257009
  H 4.726323 -2.114660 -3.423891
  H 3.687594 -0.791676 -3.612543
 16
 58.586939
  C 1.098694 0.348230 -0.006109
  C 2.390806 -0.373984 0.259236
  H 2.331281 -1.141859 1.027867
  C 3.496246 -0.204484 -0.395691
  C 4.754811 -0.028068 -0.859802
  C 5.181106 -0.581479 -2.051819
  C 4.189727 -1.410305 -2.840318
  H 3.743039 -2.354824 -2.371450
  H 6.158533 -0.364518 -2.440326
  H 0.493225 0.371166 0.895599
  H 0.525704 -0.166234 -0.776274
  H 1.282829 1.367516 -0.336685
  H 3.297477 -1.174274 -2.111186
  H 5.414013 0.616554 -0.294531
  H 4.792779 -2.137561 -3.423111
  H 3.728092 -0.868564 -3.683554
 16
 57.472098
  C 1.075492 0.413339 0.085891
  C 2.332222 -0.397267 0.265686
  H 2.243751 -1.220457 0.970693
  C 3.445255 -0.208981 -0.363443
  C 4.682890 -0.018910 -0.866764
  C 5.135830 -0.552171 -2.057424
  C 4.235228 -1.440569 -2.885719
  H 3.798531 -2.392484 -2.410708
  H 6.114788 -0.294714 -2.418389
  H 0.453886 0.340275 0.973778
  H 0.496399 0.042032 -0.758458
  H 1.311883 1.459272 -0.094685
  H 3.246846 -1.198148 -2.367772
  H 5.342851 0.626967 -0.300909
  H 4.907375 -2.231491 -3.300970
  H 3.941208 -1.004862 -3.856037
 16
 57.804748
  C 1.060304 0.416913 0.155801
  C 2.324661 -0.389952 0.308801
  H 2.259757 -1.206519 1.023671
  C 3.417636 -0.206571 -0.355344
  C 4.637966 0.005861 -0.890162
  C 5.104034 -0.521364 -2.077220
  C 4.269157 -1.466850 -2.911674
  H 3.698138 -2.326039 -2.394622
  H 6.078953 -0.239395 -2.432327
  H 0.414459 0.269095 1.016369
  H 0.510798 0.111816 -0.733383
  H 1.289250 1.476508 0.065710
  H 3.226186 -1.142914 -2.586485
  H 5.290202 0.673451 -0.339229
  H 4.934692 -2.345641 -3.102980
  H 4.147354 -1.148932 -3.959794
 16
 55.037303
  C 1.076002 0.427082 0.088407
  C 2.291826 -0.432108 0.314784
  H 2.136281 -1.251183 1.010586
  C 3.440283 -0.265163 -0.250293
  C 4.647032 -0.031884 -0.803678
  C 5.095875 -0.544349 -2.005142
  C 4.234917 -1.441877 -2.862843
  H 4.019948 -2.428189 -2.353232
  H 6.078232 -0.273318 -2.348506
  H 0.653353 0.720694 1.046602
  H 0.314856 -0.134625 -0.450080
  H 1.326662 1.322351 -0.476107
  H 3.167704 -1.259474 -2.564234
  H 5.313545 0.611151 -0.241758
  H 4.894721 -2.105620 -3.480972
  H 3.972310 -0.954023 -3.836402
