 28
 0.000000
  C 0.959923 0.144110 0.410438
  C 2.434934 0.140113 0.399748
  C 3.226719 0.606118 1.559005
  C 2.461560 1.098266 2.784071
  C 3.425958 1.539047 3.880972
  C 3.041890 -0.326666 -0.762121
  C 4.424758 -0.412150 -0.975858
  C 5.096309 -0.858715 -2.089279
  C 4.628478 -1.379135 -3.386506
  C 3.146161 -1.506596 -3.704332
  H 3.016719 -1.906990 -4.702535
  H 6.176504 -0.844893 -2.055312
  H 0.520398 0.513886 1.330720
  H 0.589548 -0.867790 0.238896
  H 0.589099 0.755702 -0.413581
  H 3.885016 1.414554 1.220547
  H 3.885264 -0.211547 1.873984
  H 1.825066 0.303543 3.177415
  H 1.824925 1.944129 2.518270
  H 4.061764 0.714801 4.196582
  H 2.873291 1.888025 4.749774
  H 4.061634 2.352622 3.538535
  H 2.379135 -0.643334 -1.549889
  H 5.047396 -0.081850 -0.153544
  H 5.098519 -2.364075 -3.506710
  H 5.098625 -0.750459 -4.154128
  H 2.659719 -0.534204 -3.665919
  H 2.659695 -2.182903 -3.004611
 28
 6.066557
  C 0.929918 0.129435 0.372083
  C 2.361926 0.132115 0.378512
  C 3.169405 0.594251 1.529080
  C 2.450225 1.097058 2.781036
  C 3.466384 1.520738 3.837442
  C 3.018519 -0.330679 -0.773423
  C 4.403810 -0.403674 -0.956831
  C 5.074237 -0.843419 -2.053126
  C 4.638475 -1.361530 -3.342692
  C 3.162151 -1.496218 -3.675572
  H 3.061725 -1.900201 -4.681683
  H 6.154007 -0.810284 -1.972532
  H 0.780497 0.521198 1.347211
  H 0.495257 -0.872261 0.234317
  H 0.495036 0.757234 -0.420363
  H 3.832853 1.393049 1.174954
  H 3.832667 -0.227746 1.825808
  H 1.819958 0.311519 3.204404
  H 1.820423 1.957601 2.543580
  H 4.100463 0.685112 4.125547
  H 2.958079 1.878884 4.729302
  H 4.101195 2.323219 3.467994
  H 2.372210 -0.653675 -1.576530
  H 5.029573 -0.073726 -0.136429
  H 5.126600 -2.337656 -3.459134
  H 5.125595 -0.736580 -4.102051
  H 2.663413 -0.530999 -3.655546
  H 2.664665 -2.180327 -2.993411
 28
 20.625197
  C 0.888946 0.129732 0.369084
  C 2.306679 0.136344 0.386344
  C 3.132465 0.598466 1.539264
  C 2.437341 1.106148 2.804955
  C 3.481580 1.521920 3.844318
  C 3.003570 -0.331186 -0.778360
  C 4.389476 -0.399504 -0.951200
  C 5.083328 -0.845059 -2.061079
  C 4.657487 -1.369609 -3.362225
  C 3.185271 -1.512575 -3.710500
  H 3.097048 -1.913506 -4.705869
  H 6.154441 -0.810294 -1.978850
  H 0.978410 0.522556 1.348476
  H 0.425008 -0.857319 0.266058
  H 0.425591 0.772335 -0.387845
  H 3.800912 1.393918 1.175127
  H 3.800247 -0.228641 1.825596
  H 1.811139 0.327401 3.246646
  H 1.812300 1.975021 2.586324
  H 4.115002 0.680448 4.120001
  H 2.992946 1.883879 4.746628
  H 4.116385 2.320180 3.462846
  H 2.357791 -0.658985 -1.593630
  H 5.007723 -0.066363 -0.124666
  H 5.160280 -2.341468 -3.469948
  H 5.157380 -0.742240 -4.113802
  H 2.682365 -0.547794 -3.698578
  H 2.685580 -2.201512 -3.032685
 28
 38.790676
  C 0.860473 0.128747 0.362786
  C 2.276560 0.141483 0.396581
  C 3.113683 0.597629 1.536747
  C 2.433420 1.108743 2.813021
  C 3.491034 1.517770 3.837499
  C 2.998414 -0.332228 -0.784161
  C 4.381303 -0.397305 -0.950172
  C 5.077129 -0.839879 -2.051574
  C 4.663878 -1.367349 -3.355572
  C 3.200593 -1.517582 -3.717888
  H 3.126473 -1.924300 -4.723823
  H 6.158065 -0.799575 -1.957528
  H 1.127156 0.507457 1.308673
  H 0.394534 -0.834328 0.295022
  H 0.395683 0.779286 -0.351210
  H 3.778101 1.385713 1.169087
  H 3.777325 -0.227038 1.814590
  H 1.807484 0.332535 3.261982
  H 1.808680 1.981322 2.602421
  H 4.122895 0.673319 4.104399
  H 3.016007 1.881521 4.745670
  H 4.124194 2.312279 3.448619
  H 2.361420 -0.656207 -1.590140
  H 4.995478 -0.064662 -0.126992
  H 5.164405 -2.339410 -3.462835
  H 5.160397 -0.740193 -4.108787
  H 2.692952 -0.558458 -3.713462
  H 2.697339 -2.206567 -3.047286
 28
 57.928020
  C 0.831472 0.122720 0.346228
  C 2.259179 0.142578 0.399023
  C 3.113214 0.598672 1.539672
  C 2.438980 1.107387 2.810007
  C 3.496172 1.514995 3.831882
  C 3.003157 -0.330382 -0.779494
  C 4.387595 -0.392616 -0.939237
  C 5.085491 -0.835660 -2.042346
  C 4.668314 -1.365000 -3.349808
  C 3.198867 -1.514827 -3.708874
  H 3.121540 -1.921267 -4.713059
  H 6.162813 -0.794048 -1.946601
  H 1.246901 0.488295 1.260273
  H 0.358619 -0.848570 0.296134
  H 0.360204 0.792076 -0.360590
  H 3.778288 1.385025 1.170272
  H 3.777259 -0.226182 1.814932
  H 1.812496 0.332766 3.257121
  H 1.814077 1.977713 2.599313
  H 4.127643 0.670261 4.098002
  H 3.023060 1.878668 4.739940
  H 4.129383 2.309108 3.442515
  H 2.369477 -0.655493 -1.588504
  H 5.003111 -0.059518 -0.115839
  H 5.167224 -2.338163 -3.459738
  H 5.162210 -0.738742 -4.105985
  H 2.689130 -0.553935 -3.702424
  H 2.694394 -2.203676 -3.034930
 28
 74.975802
  C 0.825135 0.120283 0.340032
  C 2.265605 0.142538 0.401035
  C 3.131450 0.600967 1.546572
  C 2.448810 1.105179 2.803488
  C 3.489632 1.515194 3.831858
  C 2.996929 -0.323820 -0.759970
  C 4.384393 -0.389338 -0.930262
  C 5.073022 -0.830971 -2.031252
  C 4.659522 -1.362543 -3.344463
  C 3.198042 -1.518895 -3.718805
  H 3.135873 -1.924948 -4.722299
  H 6.144166 -0.789323 -1.935895
  H 1.361652 0.465763 1.206012
  H 0.354129 -0.847772 0.309021
  H 0.354982 0.802622 -0.348349
  H 3.791255 1.384410 1.183676
  H 3.789523 -0.217793 1.824977
  H 1.821964 0.328955 3.237742
  H 1.824418 1.968114 2.581612
  H 4.120351 0.672265 4.103997
  H 3.005649 1.876739 4.733154
  H 4.122961 2.311297 3.447913
  H 2.358444 -0.652359 -1.577029
  H 5.007994 -0.057465 -0.110365
  H 5.165683 -2.334824 -3.450562
  H 5.160278 -0.733612 -4.097351
  H 2.683078 -0.557928 -3.718868
  H 2.688807 -2.212715 -3.049373
 28
 85.074536
  C 0.822557 0.094684 0.279773
  C 2.300357 0.120400 0.371558
  C 3.178431 0.597346 1.539166
  C 2.461991 1.103960 2.779574
  C 3.482199 1.521194 3.839547
  C 2.990213 -0.338438 -0.750473
  C 4.391742 -0.388308 -0.918819
  C 5.072840 -0.822804 -2.016252
  C 4.648765 -1.353718 -3.328376
  C 3.178922 -1.500435 -3.680231
  H 3.098338 -1.905378 -4.686082
  H 6.148463 -0.783703 -1.929019
  H 1.476012 0.425931 1.125559
  H 0.341879 -0.869740 0.253786
  H 0.320584 0.807658 -0.350893
  H 3.842894 1.388310 1.180208
  H 3.823582 -0.234181 1.828710
  H 1.823445 0.323265 3.205521
  H 1.837614 1.970807 2.544144
  H 4.110443 0.679981 4.129590
  H 2.974910 1.883165 4.729506
  H 4.124593 2.319624 3.470699
  H 2.361178 -0.670783 -1.563178
  H 5.008002 -0.050803 -0.098426
  H 5.148784 -2.326948 -3.444408
  H 5.140518 -0.725078 -4.086521
  H 2.669673 -0.535960 -3.672250
  H 2.677149 -2.194754 -3.004876
 28
 89.307657
  C 0.812797 0.083798 0.247594
  C 2.334961 0.104075 0.381886
  C 3.214867 0.600020 1.564106
  C 2.466018 1.122085 2.795566
  C 3.462851 1.541632 3.870090
  C 2.991019 -0.367537 -0.745574
  C 4.402415 -0.400818 -0.931375
  C 5.071026 -0.823908 -2.029668
  C 4.648668 -1.356199 -3.353046
  C 3.175409 -1.505460 -3.701947
  H 3.092653 -1.905209 -4.709334
  H 6.149500 -0.784046 -1.948375
  H 1.564491 0.401068 1.111919
  H 0.336660 -0.880139 0.208819
  H 0.288740 0.839609 -0.306562
  H 3.883264 1.390857 1.212167
  H 3.842008 -0.242237 1.865067
  H 1.817368 0.344354 3.206696
  H 1.850749 1.986523 2.537258
  H 4.082282 0.700905 4.177103
  H 2.938816 1.911018 4.747778
  H 4.114615 2.334849 3.508780
  H 2.361642 -0.706669 -1.558351
  H 5.016460 -0.058568 -0.112896
  H 5.147219 -2.328423 -3.470584
  H 5.130989 -0.716682 -4.106520
  H 2.664673 -0.544639 -3.686801
  H 2.680672 -2.203994 -3.030104
 28
 92.755117
  C 0.807427 0.073664 0.197544
  C 2.355073 0.088050 0.396974
  C 3.235109 0.594789 1.584030
  C 2.470986 1.133961 2.799463
  C 3.456947 1.557536 3.884274
  C 2.989054 -0.397731 -0.736128
  C 4.402212 -0.412387 -0.937460
  C 5.066554 -0.823673 -2.038549
  C 4.647540 -1.349591 -3.360186
  C 3.172858 -1.505806 -3.703240
  H 3.088958 -1.898766 -4.713302
  H 6.150007 -0.779175 -1.964700
  H 1.616206 0.368818 1.097254
  H 0.369315 -0.901802 0.100998
  H 0.270708 0.898725 -0.230148
  H 3.905910 1.377002 1.221430
  H 3.846706 -0.254598 1.894064
  H 1.810527 0.367088 3.213734
  H 1.866490 2.001717 2.525204
  H 4.064062 0.716996 4.206797
  H 2.926380 1.940060 4.750591
  H 4.118452 2.339521 3.523838
  H 2.367569 -0.755177 -1.538224
  H 5.012518 -0.050596 -0.121960
  H 5.144466 -2.318907 -3.481192
  H 5.116290 -0.699614 -4.108437
  H 2.658560 -0.551471 -3.679720
  H 2.686850 -2.211214 -3.038515
 28
 95.575975
  C 0.798225 0.071070 0.151558
  C 2.345658 0.067879 0.410278
  C 3.234307 0.586219 1.590412
  C 2.475132 1.144956 2.801526
  C 3.465245 1.573858 3.883820
  C 2.997544 -0.423683 -0.735893
  C 4.405044 -0.426414 -0.933993
  C 5.072693 -0.823990 -2.040722
  C 4.651927 -1.340489 -3.361431
  C 3.175161 -1.506131 -3.693513
  H 3.085234 -1.888909 -4.712534
  H 6.158017 -0.769187 -1.969669
  H 1.634772 0.325007 1.096616
  H 0.388862 -0.901014 -0.046920
  H 0.241608 0.950901 -0.100056
  H 3.906025 1.358954 1.217337
  H 3.837393 -0.265331 1.906066
  H 1.807241 0.387756 3.226046
  H 1.877459 2.015642 2.517517
  H 4.066310 0.731909 4.215993
  H 2.936390 1.971016 4.747243
  H 4.133659 2.347058 3.514583
  H 2.377254 -0.785847 -1.534254
  H 5.016781 -0.066842 -0.116302
  H 5.155164 -2.302236 -3.494988
  H 5.110601 -0.678037 -4.104784
  H 2.651897 -0.555758 -3.651940
  H 2.700674 -2.226142 -3.033264
 28
 99.741508
  C 0.785976 0.071546 0.128768
  C 2.323919 0.047311 0.417888
  C 3.225758 0.578888 1.591744
  C 2.479195 1.156834 2.804630
  C 3.481145 1.589951 3.872421
  C 2.996862 -0.445622 -0.736025
  C 4.399262 -0.443983 -0.922847
  C 5.078116 -0.828590 -2.030322
  C 4.664454 -1.332146 -3.360800
  C 3.188778 -1.500773 -3.700749
  H 3.103893 -1.870200 -4.724649
  H 6.160544 -0.768817 -1.952201
  H 1.667232 0.298187 1.113707
  H 0.385908 -0.877711 -0.161258
  H 0.194671 0.964041 0.047128
  H 3.897325 1.343369 1.203160
  H 3.823349 -0.276845 1.909922
  H 1.809603 0.411095 3.243938
  H 1.886915 2.028053 2.515713
  H 4.077870 0.748185 4.208431
  H 2.963211 2.000289 4.735110
  H 4.151205 2.352961 3.488908
  H 2.373206 -0.817550 -1.531054
  H 5.004597 -0.082158 -0.106808
  H 5.172948 -2.288458 -3.501028
  H 5.122420 -0.660816 -4.095959
  H 2.659902 -0.551452 -3.649030
  H 2.715125 -2.232093 -3.049687
 28
 105.830504
  C 0.779164 0.064037 0.093157
  C 2.303539 0.027119 0.412207
  C 3.216657 0.570751 1.591178
  C 2.485928 1.162295 2.799674
  C 3.499418 1.594233 3.852903
  C 2.990104 -0.455087 -0.733946
  C 4.390502 -0.447625 -0.908866
  C 5.077302 -0.821982 -2.014464
  C 4.667531 -1.317438 -3.344789
  C 3.192520 -1.488612 -3.681150
  H 3.104584 -1.851892 -4.708388
  H 6.160444 -0.755366 -1.932618
  H 1.711101 0.285642 1.116720
  H 0.366602 -0.870689 -0.249305
  H 0.191691 0.951175 0.098191
  H 3.894171 1.333816 1.185941
  H 3.807826 -0.289459 1.911827
  H 1.813411 0.427449 3.250594
  H 1.898686 2.036749 2.507317
  H 4.097750 0.739386 4.195088
  H 2.989344 2.018732 4.719974
  H 4.180298 2.355913 3.452380
  H 2.372827 -0.826497 -1.524172
  H 4.998754 -0.082209 -0.079518
  H 5.184705 -2.280137 -3.493741
  H 5.124426 -0.636651 -4.080578
  H 2.666157 -0.551488 -3.621241
  H 2.727800 -2.217506 -3.040094
 28
 109.479429
  C 0.786326 0.069423 0.059460
  C 2.295064 0.021200 0.431376
  C 3.210222 0.571317 1.622715
  C 2.485991 1.178233 2.835734
  C 3.510202 1.609350 3.881319
  C 2.991077 -0.451467 -0.746535
  C 4.388368 -0.444893 -0.924338
  C 5.080504 -0.815875 -2.031989
  C 4.677425 -1.319570 -3.366586
  C 3.205613 -1.514761 -3.708312
  H 3.128004 -1.879152 -4.733106
  H 6.159825 -0.733331 -1.952289
  H 1.755249 0.303635 1.161516
  H 0.381327 -0.836653 -0.340455
  H 0.185577 0.953866 0.132387
  H 3.885892 1.321948 1.208847
  H 3.791934 -0.295307 1.943763
  H 1.810516 0.452353 3.296010
  H 1.904758 2.054452 2.541178
  H 4.098534 0.759782 4.223525
  H 3.010531 2.042117 4.745108
  H 4.189488 2.356928 3.475428
  H 2.362614 -0.821066 -1.535942
  H 4.991987 -0.093661 -0.100241
  H 5.206342 -2.267550 -3.512461
  H 5.123886 -0.635082 -4.099426
  H 2.660250 -0.578250 -3.651302
  H 2.747044 -2.256806 -3.063509
 28
 81.407746
  C 0.637802 0.125487 -0.165112
  C 1.964431 0.073165 0.188242
  C 3.103882 0.707958 1.692185
  C 2.543333 1.118056 3.059876
  C 3.699861 1.636919 3.916588
  C 2.831077 -0.390865 -0.864373
  C 4.227029 -0.437294 -0.894067
  C 5.026849 -0.851886 -1.930904
  C 4.744604 -1.389333 -3.289778
  C 3.300177 -1.586506 -3.771381
  H 3.314417 -1.992851 -4.785784
  H 6.100325 -0.781863 -1.745312
  H 2.157087 0.195150 1.163862
  H 0.201269 -0.557387 -0.882713
  H -0.035206 0.816038 0.297484
  H 3.550402 1.579775 1.192410
  H 3.838123 -0.101733 1.778966
  H 2.067764 0.287997 3.579287
  H 1.804407 1.901450 2.947589
  H 4.450799 0.860239 4.076126
  H 3.324484 1.943348 4.886209
  H 4.179961 2.489092 3.456928
  H 2.290631 -0.698239 -1.738816
  H 4.778104 -0.088221 -0.030108
  H 5.273337 -2.346111 -3.362737
  H 5.260711 -0.729663 -4.006565
  H 2.759938 -0.643986 -3.799102
  H 2.774196 -2.302076 -3.145162
