 32
 0.000000
  C 0.909382 0.049421 0.267123
  C 2.401836 0.059662 0.084113
  C 3.242185 -0.012046 1.353634
  C 2.525268 -0.088735 2.699894
  C 3.522909 -0.153410 3.850403
  C 2.996326 0.127542 -1.122116
  C 2.353585 0.204905 -2.495555
  C 0.842054 0.217282 -2.714361
  C 0.515648 0.301084 -4.202683
  C 4.455673 0.132315 -1.208215
  C 5.195795 0.194593 -2.315111
  O 6.555889 0.195380 -2.330198
  H 0.604313 -0.008162 1.307104
  H 0.465382 -0.818002 -0.215662
  H 0.465760 0.965096 -0.116568
  H 3.887745 0.872283 1.385311
  H 3.888993 -0.893708 1.285482
  H 1.892504 -0.978646 2.740864
  H 1.891586 0.790177 2.841137
  H 4.158889 -1.032983 3.765595
  H 2.995217 -0.207567 4.800923
  H 4.157954 0.730785 3.865544
  H 2.741160 -0.643979 -3.070239
  H 2.741236 1.112909 -2.971322
  H 0.389759 1.078446 -2.223609
  H 0.389711 -0.693508 -2.323374
  H 0.923568 1.210317 -4.641133
  H -0.563057 0.309315 -4.348269
  H 0.923513 -0.553212 -4.740424
  H 5.000657 0.079811 -0.275993
  H 4.819550 0.251389 -3.323416
  H 6.884778 0.144285 -1.423028
 32
 1.999152
  C 0.937119 -0.011610 0.275945
  C 2.392281 0.095036 0.086834
  C 3.203178 -0.018071 1.341958
  C 2.497821 -0.029658 2.690616
  C 3.517154 -0.162035 3.819168
  C 2.994362 0.154056 -1.116791
  C 2.352765 0.219734 -2.486815
  C 0.841506 0.250440 -2.692775
  C 0.522229 0.305992 -4.184525
  C 4.457337 0.162004 -1.206017
  C 5.203012 0.212782 -2.319564
  O 6.565355 0.210387 -2.330754
  H 0.652016 0.018620 1.310277
  H 0.628640 -0.981265 -0.110964
  H 0.397153 0.780822 -0.220310
  H 3.921804 0.798301 1.376502
  H 3.747686 -0.967715 1.253514
  H 1.803549 -0.870118 2.754865
  H 1.938109 0.898428 2.832225
  H 4.081807 -1.087375 3.720971
  H 3.014807 -0.169616 4.784910
  H 4.218640 0.670622 3.806526
  H 2.733094 -0.642342 -3.044641
  H 2.754538 1.113673 -2.974899
  H 0.407631 1.131383 -2.218180
  H 0.375979 -0.641312 -2.274253
  H 0.953081 1.196383 -4.638634
  H -0.554177 0.330252 -4.340668
  H 0.921805 -0.566885 -4.697397
  H 5.005822 0.115878 -0.275849
  H 4.826203 0.258000 -3.328615
  H 6.896402 0.169167 -1.423030
 32
 2.880708
  C 0.933072 -0.106573 0.294338
  C 2.381526 0.104952 0.082522
  C 3.191750 -0.066335 1.335372
  C 2.507569 0.036558 2.696896
  C 3.530986 -0.155444 3.812017
  C 2.986702 0.172604 -1.121846
  C 2.352235 0.239841 -2.499018
  C 0.839971 0.284899 -2.713374
  C 0.527250 0.328546 -4.208566
  C 4.453534 0.192028 -1.202756
  C 5.199477 0.242830 -2.305652
  O 6.558449 0.241472 -2.310281
  H 0.636563 0.077088 1.325840
  H 0.764671 -1.170355 0.098101
  H 0.302328 0.513008 -0.329713
  H 4.003941 0.656867 1.348884
  H 3.601845 -1.076979 1.264073
  H 1.740706 -0.728948 2.809449
  H 2.044518 1.017519 2.811196
  H 4.002568 -1.133949 3.736526
  H 3.048594 -0.082181 4.784654
  H 4.310556 0.602933 3.760086
  H 2.729415 -0.629020 -3.051305
  H 2.765121 1.129077 -2.988764
  H 0.419243 1.178882 -2.252192
  H 0.363988 -0.597024 -2.286739
  H 0.972191 1.207829 -4.671590
  H -0.548827 0.364990 -4.368948
  H 0.918309 -0.554620 -4.711226
  H 4.994385 0.142117 -0.270016
  H 4.828119 0.284637 -3.315379
  H 6.884774 0.202729 -1.400477
 32
 4.302761
  C 0.960002 -0.219478 0.314497
  C 2.386494 0.068558 0.080800
  C 3.166045 -0.159255 1.336558
  C 2.511109 0.115693 2.689162
  C 3.516119 -0.116756 3.811116
  C 2.991745 0.156247 -1.121086
  C 2.354728 0.254955 -2.499778
  C 0.843742 0.286193 -2.717689
  C 0.537897 0.380372 -4.210889
  C 4.454804 0.196566 -1.211836
  C 5.194472 0.277073 -2.324210
  O 6.550582 0.289843 -2.338469
  H 0.636179 0.112600 1.293720
  H 0.895085 -1.315336 0.300480
  H 0.285693 0.219354 -0.396803
  H 4.070416 0.438642 1.330248
  H 3.430848 -1.217376 1.312478
  H 1.658524 -0.541900 2.864601
  H 2.166208 1.155236 2.730155
  H 3.867929 -1.147567 3.802985
  H 3.055426 0.080534 4.777852
  H 4.379858 0.538786 3.704995
  H 2.742694 -0.592900 -3.076360
  H 2.757881 1.162305 -2.963368
  H 0.407251 1.157316 -2.224332
  H 0.381030 -0.621978 -2.327795
  H 0.970932 1.283906 -4.638595
  H -0.538773 0.405537 -4.375340
  H 0.945761 -0.477947 -4.743722
  H 5.006666 0.132120 -0.283683
  H 4.815971 0.333123 -3.330269
  H 6.885206 0.237897 -1.430281
 32
 4.210443
  C 0.971025 -0.355804 0.325095
  C 2.394989 -0.027064 0.073915
  C 3.141341 -0.301021 1.343771
  C 2.546589 0.217378 2.656370
  C 3.500079 -0.055950 3.812213
  C 2.999061 0.111284 -1.122744
  C 2.359515 0.258108 -2.494346
  C 0.850970 0.265828 -2.716259
  C 0.548541 0.447125 -4.200954
  C 4.458818 0.198411 -1.222009
  C 5.185967 0.333601 -2.333043
  O 6.544905 0.385655 -2.355907
  H 0.611530 0.125360 1.228099
  H 0.971971 -1.438578 0.505795
  H 0.282495 -0.095708 -0.461121
  H 4.146486 0.106607 1.310661
  H 3.194991 -1.400561 1.396970
  H 1.598379 -0.259933 2.889422
  H 2.378153 1.293516 2.576298
  H 3.676214 -1.124604 3.915676
  H 3.080642 0.313971 4.744924
  H 4.458624 0.433499 3.652883
  H 2.767024 -0.548697 -3.111468
  H 2.741849 1.195976 -2.908112
  H 0.392389 1.089830 -2.168346
  H 0.411261 -0.676614 -2.392222
  H 0.959179 1.385951 -4.566601
  H -0.525908 0.455001 -4.370519
  H 0.980581 -0.364121 -4.783112
  H 5.022001 0.121686 -0.303427
  H 4.798212 0.410088 -3.334421
  H 6.886125 0.315711 -1.459685
 32
 5.458930
  C 0.970365 -0.438594 0.325596
  C 2.386630 -0.077632 0.062351
  C 3.099475 -0.409845 1.342223
  C 2.611825 0.301388 2.610993
  C 3.513124 -0.033264 3.793040
  C 2.997586 0.077531 -1.127314
  C 2.361538 0.251791 -2.499506
  C 0.855621 0.232502 -2.721295
  C 0.545887 0.483739 -4.191738
  C 4.454947 0.212644 -1.207645
  C 5.190040 0.379037 -2.308971
  O 6.543079 0.480818 -2.316202
  H 0.568595 0.145970 1.150019
  H 1.033091 -1.482787 0.666336
  H 0.282055 -0.332114 -0.498258
  H 4.162952 -0.206117 1.294028
  H 2.935161 -1.495221 1.448305
  H 1.598229 0.013440 2.873863
  H 2.623182 1.380936 2.440962
  H 3.510251 -1.107753 3.982439
  H 3.164220 0.475563 4.692547
  H 4.542147 0.276890 3.603414
  H 2.787994 -0.521771 -3.141015
  H 2.721695 1.210457 -2.879792
  H 0.377846 1.011405 -2.129748
  H 0.443623 -0.736937 -2.449424
  H 0.929438 1.450641 -4.506935
  H -0.527269 0.471052 -4.359361
  H 0.997867 -0.282047 -4.815846
  H 5.006538 0.162454 -0.278838
  H 4.811072 0.444614 -3.313062
  H 6.877921 0.419936 -1.412058
 32
 8.432496
  C 0.969129 -0.505381 0.330180
  C 2.378043 -0.143033 0.051903
  C 3.057087 -0.493326 1.331983
  C 2.692628 0.368470 2.532769
  C 3.517374 -0.022677 3.752621
  C 2.995100 0.048769 -1.128897
  C 2.367524 0.247435 -2.494706
  C 0.863249 0.197647 -2.713244
  C 0.538287 0.504569 -4.171988
  C 4.449893 0.226946 -1.182388
  C 5.196659 0.422608 -2.271146
  O 6.548501 0.572496 -2.258025
  H 0.544445 0.149626 1.090441
  H 1.072033 -1.502716 0.793128
  H 0.283496 -0.505878 -0.503472
  H 4.140998 -0.477208 1.272853
  H 2.697385 -1.532385 1.490768
  H 1.640705 0.273901 2.790574
  H 2.882118 1.417208 2.284180
  H 3.336957 -1.065292 4.016453
  H 3.250138 0.599943 4.607188
  H 4.584469 0.100076 3.561583
  H 2.813097 -0.496796 -3.155643
  H 2.704647 1.221274 -2.845659
  H 0.366590 0.938483 -2.083354
  H 0.480254 -0.792591 -2.481940
  H 0.893186 1.495595 -4.446472
  H -0.535167 0.469072 -4.335117
  H 1.007819 -0.220025 -4.831942
  H 4.980217 0.197856 -0.242896
  H 4.828636 0.477658 -3.281328
  H 6.871621 0.520995 -1.349932
 32
 11.678967
  C 0.948087 -0.614358 0.309003
  C 2.359707 -0.245082 0.029353
  C 3.021164 -0.592590 1.327084
  C 2.801685 0.429601 2.437218
  C 3.538929 0.030804 3.712480
  C 2.985726 0.012454 -1.131213
  C 2.367166 0.248573 -2.494966
  C 0.860780 0.168731 -2.711812
  C 0.516313 0.552341 -4.148099
  C 4.441328 0.220805 -1.143717
  C 5.208716 0.460401 -2.206813
  O 6.554954 0.653510 -2.155916
  H 0.487774 0.112485 0.980536
  H 1.097838 -1.545862 0.907565
  H 0.285353 -0.743232 -0.533357
  H 4.092717 -0.761138 1.254460
  H 2.482410 -1.548267 1.564139
  H 1.746828 0.532877 2.665886
  H 3.162875 1.409171 2.091363
  H 3.188638 -0.938294 4.068679
  H 3.368918 0.767934 4.497247
  H 4.612666 -0.039941 3.537422
  H 2.835214 -0.460534 -3.183711
  H 2.680576 1.242297 -2.806543
  H 0.344905 0.857513 -2.032027
  H 0.510067 -0.842706 -2.536795
  H 0.838455 1.567424 -4.363639
  H -0.553057 0.493559 -4.307740
  H 1.002333 -0.114331 -4.851128
  H 4.942763 0.187946 -0.189887
  H 4.862235 0.527199 -3.225282
  H 6.856544 0.593298 -1.240983
 32
 18.299644
  C 0.926156 -0.679487 0.288268
  C 2.337756 -0.315069 0.010848
  C 2.986297 -0.649591 1.317151
  C 2.900529 0.465330 2.354042
  C 3.559821 0.057676 3.667437
  C 2.974124 -0.007701 -1.130285
  C 2.368037 0.245582 -2.493444
  C 0.866445 0.139694 -2.708618
  C 0.502710 0.577736 -4.123939
  C 4.428085 0.222001 -1.105577
  C 5.210151 0.494968 -2.148383
  O 6.551924 0.708085 -2.070706
  H 0.432760 0.102195 0.871273
  H 1.123999 -1.529698 0.996161
  H 0.289453 -0.918917 -0.547216
  H 4.028470 -0.955556 1.242233
  H 2.312087 -1.505878 1.606655
  H 1.862396 0.724522 2.547837
  H 3.393699 1.363127 1.953618
  H 3.076227 -0.830315 4.079065
  H 3.482270 0.862812 4.399278
  H 4.617105 -0.169921 3.519824
  H 2.850713 -0.434877 -3.194589
  H 2.662772 1.251298 -2.779843
  H 0.340020 0.780825 -1.995650
  H 0.542112 -0.890426 -2.576546
  H 0.796709 1.611579 -4.295875
  H -0.568033 0.496842 -4.280564
  H 1.003147 -0.044366 -4.860306
  H 4.904906 0.182063 -0.134141
  H 4.877864 0.574469 -3.169460
  H 6.838027 0.634010 -1.151457
 32
 26.957915
  C 0.915287 -0.737121 0.266434
  C 2.326269 -0.364285 0.000553
  C 2.968344 -0.681426 1.316655
  C 2.958389 0.480614 2.303977
  C 3.575902 0.084168 3.638206
  C 2.967141 -0.010222 -1.122467
  C 2.370880 0.252525 -2.488471
  C 0.867694 0.153762 -2.699020
  C 0.499766 0.593099 -4.112494
  C 4.417454 0.218018 -1.080562
  C 5.203825 0.513042 -2.115271
  O 6.545614 0.724350 -2.029503
  H 0.379049 0.078721 0.752671
  H 1.153227 -1.513455 1.078024
  H 0.320393 -1.082145 -0.561322
  H 3.981847 -1.071840 1.248039
  H 2.197482 -1.476025 1.628770
  H 1.937581 0.817385 2.470453
  H 3.513074 1.323259 1.875184
  H 3.027790 -0.750100 4.081729
  H 3.550015 0.922924 4.335229
  H 4.616067 -0.223231 3.510124
  H 2.850380 -0.425407 -3.192533
  H 2.671822 1.258943 -2.768167
  H 0.348387 0.794438 -1.982990
  H 0.538212 -0.876934 -2.564635
  H 0.796130 1.625386 -4.285502
  H -0.570191 0.515604 -4.265183
  H 0.995234 -0.029990 -4.849820
  H 4.884980 0.152413 -0.107958
  H 4.871457 0.614039 -3.136904
  H 6.828709 0.629846 -1.110992
 32
 36.858716
  C 0.892965 -0.775007 0.243476
  C 2.310755 -0.411535 -0.013170
  C 2.948336 -0.704715 1.313106
  C 3.024964 0.496039 2.247041
  C 3.604180 0.111923 3.600363
  C 2.961519 -0.047049 -1.128146
  C 2.372725 0.236899 -2.490625
  C 0.866552 0.135960 -2.700621
  C 0.489941 0.618017 -4.097238
  C 4.404815 0.205834 -1.054690
  C 5.204474 0.535792 -2.067356
  O 6.543266 0.744123 -1.956417
  H 0.331049 0.071112 0.643333
  H 1.161939 -1.475065 1.140560
  H 0.328262 -1.209280 -0.569401
  H 3.926225 -1.176417 1.253104
  H 2.089848 -1.426162 1.647876
  H 2.027645 0.915528 2.389202
  H 3.644122 1.279217 1.788081
  H 2.993615 -0.657164 4.074158
  H 3.639641 0.979138 4.260725
  H 4.616949 -0.278566 3.492419
  H 2.857037 -0.428387 -3.206536
  H 2.671764 1.249108 -2.751611
  H 0.345160 0.749974 -1.960978
  H 0.543091 -0.901340 -2.596960
  H 0.778457 1.657092 -4.237665
  H -0.580839 0.537861 -4.248735
  H 0.987421 0.022496 -4.856525
  H 4.854918 0.121583 -0.072438
  H 4.887172 0.661316 -3.090143
  H 6.812900 0.621625 -1.036772
 32
 47.502007
  C 0.893720 -0.788738 0.224434
  C 2.312953 -0.420242 -0.019857
  C 2.939450 -0.696997 1.306393
  C 3.041138 0.508825 2.224777
  C 3.599719 0.121555 3.590858
  C 2.967025 -0.040245 -1.128393
  C 2.375202 0.241202 -2.494231
  C 0.868152 0.148695 -2.688859
  C 0.480507 0.623298 -4.084247
  C 4.414857 0.184941 -1.055199
  C 5.218449 0.513242 -2.066109
  O 6.555922 0.725344 -1.949613
  H 0.303940 0.060232 0.574970
  H 1.186700 -1.450760 1.168211
  H 0.361032 -1.269058 -0.577542
  H 3.907644 -1.199435 1.255657
  H 2.029745 -1.399023 1.637612
  H 2.052995 0.956400 2.352579
  H 3.683127 1.271791 1.765732
  H 2.964842 -0.626630 4.067874
  H 3.653066 0.993448 4.242919
  H 4.602365 -0.296944 3.496272
  H 2.849622 -0.431559 -3.211497
  H 2.678843 1.251112 -2.762252
  H 0.357523 0.770385 -1.946057
  H 0.541052 -0.880464 -2.574868
  H 0.773252 1.660523 -4.235036
  H -0.591230 0.547986 -4.224528
  H 0.966735 0.020710 -4.844162
  H 4.864035 0.078694 -0.075282
  H 4.901136 0.655416 -3.088409
  H 6.822327 0.598271 -1.030160
 32
 57.687958
  C 0.883181 -0.776993 0.212837
  C 2.306880 -0.422273 -0.024434
  C 2.937233 -0.694004 1.306425
  C 3.057360 0.516792 2.213761
  C 3.608672 0.129723 3.579274
  C 2.964121 -0.038328 -1.129604
  C 2.377732 0.242350 -2.495778
  C 0.869332 0.150557 -2.693025
  C 0.482325 0.626652 -4.087889
  C 4.413845 0.178688 -1.052685
  C 5.219081 0.504579 -2.063206
  O 6.558941 0.696714 -1.948271
  H 0.291068 0.076111 0.543011
  H 1.187777 -1.450124 1.208678
  H 0.358588 -1.271912 -0.590702
  H 3.895088 -1.213756 1.257076
  H 1.976400 -1.404875 1.651638
  H 2.075720 0.980909 2.337494
  H 3.711475 1.268472 1.750700
  H 2.961650 -0.606328 4.061163
  H 3.675491 1.006490 4.226642
  H 4.605873 -0.305485 3.487061
  H 2.852917 -0.430864 -3.211273
  H 2.683359 1.250576 -2.762415
  H 0.358050 0.770485 -1.951245
  H 0.540083 -0.882126 -2.579884
  H 0.774580 1.663634 -4.237769
  H -0.589699 0.551214 -4.229108
  H 0.969158 0.025066 -4.848493
  H 4.860680 0.061813 -0.072432
  H 4.901513 0.650906 -3.085536
  H 6.824739 0.560536 -1.029332
 32
 66.891770
  C 0.877628 -0.785899 0.208659
  C 2.304066 -0.437461 -0.027490
  C 2.941923 -0.688013 1.307422
  C 3.061250 0.526222 2.206587
  C 3.609223 0.147231 3.577568
  C 2.959359 -0.050069 -1.132794
  C 2.374179 0.234603 -2.496311
  C 0.868522 0.172320 -2.693993
  C 0.493630 0.643720 -4.095525
  C 4.409793 0.152530 -1.063755
  C 5.217445 0.478160 -2.073471
  O 6.558141 0.675719 -1.958341
  H 0.279676 0.066725 0.526174
  H 1.201063 -1.464716 1.247015
  H 0.360198 -1.297269 -0.591973
  H 3.897860 -1.206355 1.259205
  H 1.947809 -1.418011 1.664251
  H 2.083323 0.990054 2.325830
  H 3.718491 1.276665 1.739833
  H 2.961681 -0.583320 4.062343
  H 3.675087 1.025680 4.216527
  H 4.604855 -0.288799 3.490248
  H 2.834708 -0.448548 -3.208605
  H 2.698176 1.241148 -2.768440
  H 0.370434 0.809963 -1.958886
  H 0.516568 -0.854385 -2.572105
  H 0.807945 1.672850 -4.254271
  H -0.580735 0.589020 -4.237071
  H 0.970029 0.023880 -4.849826
  H 4.858019 0.029254 -0.089374
  H 4.901734 0.635260 -3.085951
  H 6.824315 0.537455 -1.040231
