11

H 1.388734610904663 0.13608260284722568 0.390848013842382
C 2.458709 0.139076 0.397619
H 3.0215189809830725 0.4785769835671614 1.2419435865558834
C 3.07285 -0.324759 -0.756985
C 4.450298 -0.413051 -0.977376
C 5.123279 -0.864414 -2.102741
H 4.764069041756903 -1.2395303821476717 -3.038238678106918
O 6.448664 -0.861152 -2.094623
H 2.402903 -0.638834 -1.538514
H 5.070703 -0.081812 -0.152336
H 6.822532 -0.526207 -1.258135
