 13
 0.000000
  H 3.588777 -0.602310 -0.994376
  C 4.663839 -0.608501 -1.006529
  C 5.375543 -1.117821 -2.006406
  C 6.819191 -1.129976 -2.030266
  C 7.534882 -1.640098 -3.031726
  C 9.023675 -1.662152 -3.075017
  H 5.161500 -0.174094 -0.153717
  H 4.871228 -1.552637 -2.860022
  H 7.325677 -0.695830 -1.177966
  H 7.034064 -2.075655 -3.886785
  H 9.456994 -1.209410 -2.186213
  H 9.381882 -1.118499 -3.949709
  H 9.381880 -2.689325 -3.149561
 13
 12.707565
  H 3.531237 -0.575074 -0.940914
  C 4.603928 -0.577509 -0.945686
  C 5.343373 -1.123816 -2.018170
  C 6.779682 -1.139495 -2.048954
  C 7.482449 -1.653806 -3.058632
  C 9.148113 -1.671533 -3.093429
  H 5.109959 -0.147170 -0.100863
  H 4.818930 -1.551960 -2.858691
  H 7.289687 -0.706231 -1.198375
  H 7.008268 -2.093311 -3.921447
  H 9.537453 -1.213137 -2.193520
  H 9.482581 -1.123142 -3.967097
  H 9.482569 -2.700643 -3.163534
 13
 39.363150
  H 3.508145 -0.556264 -0.903998
  C 4.587847 -0.560883 -0.913031
  C 5.300950 -1.125576 -2.021630
  C 6.723774 -1.151912 -2.073327
  C 7.385993 -1.667228 -3.084966
  C 9.291019 -1.673075 -3.096419
  H 5.132057 -0.136373 -0.079661
  H 4.730172 -1.545190 -2.845409
  H 7.251248 -0.721256 -1.227888
  H 6.962168 -2.115467 -3.964940
  H 9.598791 -1.199451 -2.166647
  H 9.577066 -1.104468 -3.976320
  H 9.577047 -2.719055 -3.153843
 13
 68.243336
  H 3.476279 -0.528730 -0.849898
  C 4.548404 -0.543660 -0.879182
  C 5.231634 -1.116852 -2.004629
  C 6.667225 -1.161328 -2.091873
  C 7.300770 -1.684462 -3.118770
  C 9.464179 -1.676828 -3.103830
  H 5.106768 -0.127913 -0.062970
  H 4.647705 -1.525588 -2.806997
  H 7.209369 -0.737582 -1.259972
  H 6.934749 -2.140222 -4.013511
  H 9.684095 -1.199400 -2.166636
  H 9.687289 -1.104750 -3.985254
  H 9.687337 -2.726192 -3.159289
 13
 92.799325
  H 3.449755 -0.505279 -0.803948
  C 4.515469 -0.534816 -0.861801
  C 5.155304 -1.103715 -1.978630
  C 6.593527 -1.166149 -2.101278
  C 7.200919 -1.693037 -3.135615
  C 9.653337 -1.681816 -3.113571
  H 5.086168 -0.123349 -0.054141
  H 4.563519 -1.508066 -2.772552
  H 7.150554 -0.747140 -1.278762
  H 6.870003 -2.158730 -4.049902
  H 9.807015 -1.202793 -2.173185
  H 9.817303 -1.103691 -4.003227
  H 9.817306 -2.741277 -3.169017
 13
 110.289312
  H 3.407437 -0.483681 -0.761494
  C 4.475633 -0.527473 -0.847475
  C 5.075571 -1.089258 -1.950220
  C 6.516138 -1.167032 -2.103034
  C 7.109892 -1.694946 -3.139368
  C 9.854693 -1.694385 -3.138354
  H 5.056986 -0.117987 -0.043540
  H 4.472982 -1.496304 -2.749544
  H 7.083756 -0.750996 -1.286455
  H 6.814291 -2.160705 -4.053769
  H 9.960713 -1.210798 -2.189105
  H 9.953362 -1.117188 -4.030781
  H 9.953505 -2.755873 -3.196193
 13
 121.688439
  H 3.346406 -0.466678 -0.728520
  C 4.417369 -0.520030 -0.832837
  C 4.996895 -1.076362 -1.924768
  C 6.441882 -1.161618 -2.092184
  C 7.033793 -1.688439 -3.126422
  C 10.058204 -1.713002 -3.174911
  H 5.006951 -0.109842 -0.027642
  H 4.395557 -1.482605 -2.722802
  H 7.014119 -0.745643 -1.275625
  H 6.768266 -2.157480 -4.047368
  H 10.143436 -1.231318 -2.229382
  H 10.094534 -1.134212 -4.069740
  H 10.094942 -2.777254 -3.232937
 13
 128.616705
  H 3.285999 -0.454162 -0.703696
  C 4.350394 -0.510552 -0.814196
  C 4.919985 -1.063512 -1.899956
  C 6.374500 -1.153938 -2.077292
  C 6.967308 -1.680119 -3.110198
  C 10.260864 -1.735877 -3.219830
  H 4.941908 -0.101633 -0.011446
  H 4.318637 -1.466846 -2.691861
  H 6.952045 -0.738878 -1.262317
  H 6.721761 -2.149964 -4.032627
  H 10.340588 -1.252377 -2.270849
  H 10.240780 -1.154169 -4.116266
  H 10.241476 -2.803307 -3.276408
 13
 132.492841
  H 3.218532 -0.445788 -0.687204
  C 4.287565 -0.502299 -0.798356
  C 4.852696 -1.050872 -1.875538
  C 6.304548 -1.142410 -2.054615
  C 6.903536 -1.665985 -3.082187
  C 10.463948 -1.763662 -3.272487
  H 4.877890 -0.093017 0.005911
  H 4.248867 -1.457541 -2.673803
  H 6.882331 -0.725732 -1.236285
  H 6.672165 -2.137519 -4.007962
  H 10.558374 -1.281291 -2.325223
  H 10.389397 -1.179166 -4.164905
  H 10.390483 -2.825045 -3.324058
 13
 134.390445
  H 3.139739 -0.442634 -0.680492
  C 4.210582 -0.494745 -0.783235
  C 4.784076 -1.038690 -1.851886
  C 6.238040 -1.124780 -2.020605
  C 6.851843 -1.644150 -3.040050
  C 10.669362 -1.797579 -3.340496
  H 4.791199 -0.082585 0.026185
  H 4.189391 -1.448970 -2.656603
  H 6.806641 -0.705159 -1.196490
  H 6.632259 -2.117005 -3.968325
  H 10.810973 -1.317339 -2.397913
  H 10.546092 -1.210885 -4.223730
  H 10.547917 -2.857003 -3.385457
 13
 135.135564
  H 3.051405 -0.447733 -0.683754
  C 4.124460 -0.486929 -0.772331
  C 4.716863 -1.024517 -1.828787
  C 6.174784 -1.100289 -1.975462
  C 6.810169 -1.615056 -2.983414
  C 10.877199 -1.839763 -3.422344
  H 4.687666 -0.073530 0.048841
  H 4.138875 -1.441923 -2.642449
  H 6.727739 -0.675477 -1.143061
  H 6.603981 -2.089910 -3.913873
  H 11.092979 -1.364675 -2.491161
  H 10.710045 -1.249437 -4.296171
  H 10.712754 -2.893837 -3.456946
 13
 134.804118
  H 3.080364 -0.452864 -0.701879
  C 4.153686 -0.494984 -0.784439
  C 4.754802 -1.032024 -1.838502
  C 6.213858 -1.103491 -1.978023
  C 6.854385 -1.616346 -2.984423
  C 10.774373 -1.828159 -3.400722
  H 4.710499 -0.076129 0.038321
  H 4.184936 -1.449000 -2.657056
  H 6.760610 -0.678245 -1.143004
  H 6.638730 -2.090122 -3.914486
  H 11.020469 -1.356494 -2.475193
  H 10.639622 -1.238215 -4.280470
  H 10.642582 -2.887004 -3.441035
