20

C 0.972154 0.141763 0.400385
C 2.450911 0.139075 0.393808
C 3.234667 0.609825 1.563557
C 2.457594 1.095616 2.78453
H 3.123937398400374 1.4083027823225809 3.5611337931719054
C 3.062286 -0.325762 -0.761959
C 4.44153 -0.412074 -0.977236
C 5.119203 -0.862864 -2.099749
H 4.764323104846388 -1.2390140384367656 -3.0364834386750075
O 6.44455 -0.857445 -2.086521
H 0.543115 0.519187 1.321745
H 0.587366 -0.867501 0.24401
H 0.59981 0.75705 -0.420066
H 3.887793 1.424893 1.231074
H 3.893229 -0.205858 1.883445
H 1.822234 0.296317 3.171288
H 1.817025 1.937752 2.515083
H 2.402432 -0.64338 -1.551381
H 5.058757 -0.079624 -0.15042
H 6.814983 -0.521529 -1.248774
