 16
 0.000000
  C 1.011391 0.146963 0.396013
  C 2.474716 0.135112 0.367599
  C 3.229945 0.597761 1.533546
  H 2.577378 0.913435 2.341965
  C 3.110567 -0.329082 -0.790164
  C 4.505164 -0.393424 -0.953860
  C 5.120666 -0.852464 -2.075841
  H 4.629656 -1.223544 -2.960236
  H 6.198818 -0.863692 -2.115750
  H 0.611407 0.508699 1.337855
  H 0.623943 -0.857502 0.208111
  H 0.622081 0.760321 -0.419376
  H 3.897279 1.418397 1.261686
  H 3.886868 -0.194356 1.899025
  H 2.490046 -0.661470 -1.611905
  H 5.131763 -0.057039 -0.139795
 16
 0.689698
  C 1.051448 0.129395 0.339557
  C 2.505611 0.105211 0.436696
  C 3.213155 0.601399 1.618828
  H 2.524712 0.942126 2.394068
  C 3.166818 -0.363898 -0.708306
  C 4.543899 -0.384176 -0.924821
  C 5.034972 -0.814870 -2.120986
  H 4.398741 -1.152994 -2.922358
  H 6.099612 -0.855840 -2.286503
  H 0.557965 0.590584 1.178235
  H 0.659968 -0.870718 0.192170
  H 0.825449 0.648107 -0.609431
  H 3.889240 1.421713 1.346332
  H 3.864628 -0.180372 2.029828
  H 2.553888 -0.713895 -1.526407
  H 5.220173 -0.053704 -0.153209
 16
 1.093030
  C 1.054787 0.173738 0.314762
  C 2.506997 0.036226 0.440187
  C 3.206536 0.590882 1.599557
  H 2.530058 1.092151 2.283922
  C 3.186246 -0.575561 -0.617458
  C 4.550021 -0.405902 -0.920320
  C 5.039109 -0.765220 -2.134717
  H 4.412841 -1.251860 -2.865149
  H 6.054315 -0.560070 -2.426656
  H 0.583653 0.544596 1.218976
  H 0.586455 -0.754069 -0.012727
  H 0.867117 0.887496 -0.495066
  H 3.992892 1.281915 1.292122
  H 3.727668 -0.206732 2.134878
  H 2.597279 -1.134273 -1.334220
  H 5.193344 0.099574 -0.214702
 16
 5.509168
  C 1.133098 0.202013 0.210904
  C 2.550121 -0.035272 0.503675
  C 3.190821 0.579541 1.665253
  H 2.508572 1.211061 2.224911
  C 3.260012 -0.759705 -0.457367
  C 4.560893 -0.439474 -0.897345
  C 4.897626 -0.667979 -2.187561
  H 4.238643 -1.211414 -2.844441
  H 5.810762 -0.296899 -2.618307
  H 0.612185 0.712101 1.014550
  H 0.611991 -0.710733 -0.075106
  H 1.123093 0.838745 -0.681622
  H 4.071663 1.154476 1.375008
  H 3.577279 -0.201360 2.324049
  H 2.699786 -1.449250 -1.077627
  H 5.213291 0.136005 -0.256682
 16
 11.441603
  C 1.230442 0.230131 0.095175
  C 2.593222 -0.069887 0.547602
  C 3.168445 0.573726 1.725676
  H 2.472021 1.250066 2.208075
  C 3.332868 -0.872072 -0.326542
  C 4.571910 -0.468070 -0.883865
  C 4.731755 -0.594191 -2.215685
  H 4.033043 -1.166609 -2.804785
  H 5.545428 -0.134252 -2.745773
  H 0.667756 0.829469 0.802143
  H 0.680161 -0.665838 -0.188291
  H 1.380500 0.801038 -0.829698
  H 4.093822 1.097655 1.483117
  H 3.473462 -0.196267 2.439406
  H 2.802068 -1.652747 -0.857582
  H 5.250915 0.131130 -0.293341
 16
 19.517365
  C 1.360539 0.259981 -0.031760
  C 2.644629 -0.100474 0.586717
  C 3.146992 0.561905 1.782674
  H 2.445246 1.285673 2.183490
  C 3.407601 -0.971845 -0.203611
  C 4.571906 -0.501132 -0.874930
  C 4.516577 -0.500964 -2.220244
  H 3.785419 -1.088491 -2.751524
  H 5.232607 0.031397 -2.821727
  H 0.770344 0.944695 0.567744
  H 0.773791 -0.606015 -0.335649
  H 1.676927 0.749838 -0.961146
  H 4.115978 1.028872 1.600969
  H 3.349969 -0.195900 2.543741
  H 2.889963 -1.802882 -0.673503
  H 5.298822 0.090669 -0.338369
 16
 25.849875
  C 1.425532 0.253509 -0.095534
  C 2.642610 -0.163381 0.612603
  C 3.153235 0.567111 1.769277
  H 2.498391 1.373875 2.075707
  C 3.419546 -1.050797 -0.157286
  C 4.557236 -0.539031 -0.862652
  C 4.384723 -0.415118 -2.183700
  H 3.618297 -0.961691 -2.706700
  H 5.054184 0.176413 -2.788232
  H 0.818645 0.963958 0.458078
  H 0.826748 -0.576404 -0.461801
  H 1.862503 0.735486 -0.988874
  H 4.161736 0.946898 1.583657
  H 3.275428 -0.129480 2.603716
  H 2.928330 -1.902346 -0.594585
  H 5.314557 0.026964 -0.327162
 16
 36.743733
  C 1.561786 0.258994 -0.189485
  C 2.711778 -0.131573 0.622844
  C 3.125070 0.568698 1.828539
  H 2.521626 1.449436 2.026124
  C 3.513358 -1.081500 -0.055293
  C 4.542956 -0.519832 -0.896780
  C 4.138530 -0.296747 -2.154359
  H 3.402720 -0.912709 -2.647604
  H 4.725919 0.329676 -2.806354
  H 0.958044 1.053344 0.232889
  H 0.957578 -0.568969 -0.556826
  H 2.102146 0.591589 -1.111457
  H 4.185986 0.817896 1.794223
  H 3.029619 -0.115487 2.676254
  H 2.989145 -1.928084 -0.492223
  H 5.425401 -0.065170 -0.471849
 16
 49.959548
  C 1.651692 0.282378 -0.269103
  C 2.669592 -0.197321 0.645836
  C 3.126275 0.554484 1.804154
  H 2.470450 1.389685 2.041224
  C 3.499701 -1.158654 -0.011943
  C 4.484859 -0.549736 -0.876554
  C 3.961709 -0.200904 -2.064012
  H 3.249377 -0.814523 -2.589870
  H 4.529953 0.458404 -2.703699
  H 1.071195 1.129978 0.066926
  H 1.053286 -0.462077 -0.788270
  H 2.361140 0.532222 -1.143449
  H 4.151495 0.897928 1.653623
  H 3.171387 -0.109471 2.670771
  H 3.045772 -2.089795 -0.339798
  H 5.341571 -0.051600 -0.456795
 16
 64.808790
  C 1.698657 0.247539 -0.242336
  C 2.657231 -0.168294 0.659420
  C 3.114698 0.572017 1.842103
  H 2.485544 1.433165 2.044315
  C 3.503581 -1.156251 0.010476
  C 4.436683 -0.535854 -0.880721
  C 3.811536 -0.126881 -2.049194
  H 3.176499 -0.814520 -2.596934
  H 4.361746 0.545570 -2.691270
  H 1.138739 1.135250 0.010118
  H 1.143509 -0.459012 -0.842255
  H 2.685582 0.428971 -1.388227
  H 4.155294 0.875583 1.722512
  H 3.090499 -0.085846 2.711432
  H 3.004172 -2.053942 -0.342376
  H 5.330065 -0.056320 -0.508312
 16
 51.267779
  C 1.605245 0.231797 -0.103311
  C 2.620356 -0.127936 0.702813
  C 3.111063 0.587452 1.902898
  H 2.445681 1.401180 2.172088
  C 3.449514 -1.072819 -0.028815
  C 4.382398 -0.470905 -0.881039
  C 3.829520 -0.129282 -2.168972
  H 3.313334 -0.930303 -2.702050
  H 4.460323 0.462203 -2.814630
  H 1.046239 1.120875 0.149798
  H 1.088262 -0.450644 -0.755654
  H 2.926335 0.424620 -1.775039
  H 4.121287 0.968447 1.759339
  H 3.156437 -0.118147 2.732544
  H 2.913783 -1.938846 -0.410567
  H 5.290497 -0.009140 -0.518459
 16
 38.051895
  C 1.413256 0.186400 0.077375
  C 2.543419 -0.125000 0.740796
  C 3.136853 0.624599 1.875335
  H 2.433115 1.353995 2.262318
  C 3.325573 -1.013508 -0.103262
  C 4.339419 -0.489512 -0.902406
  C 3.955041 -0.126939 -2.265215
  H 3.453060 -0.925896 -2.809394
  H 4.738097 0.332947 -2.854983
  H 0.796600 1.005822 0.400637
  H 0.995713 -0.441406 -0.689173
  H 3.144861 0.592398 -2.035833
  H 4.056411 1.129805 1.589719
  H 3.386093 -0.077502 2.668105
  H 2.812742 -1.908256 -0.450570
  H 5.208617 -0.013546 -0.458747
 16
 28.039919
  C 1.299199 0.177309 0.224478
  C 2.522601 -0.087055 0.735999
  C 3.151015 0.627229 1.875496
  H 2.451958 1.327816 2.320044
  C 3.265204 -0.911971 -0.186217
  C 4.297437 -0.370202 -0.933345
  C 4.072743 -0.189192 -2.360079
  H 3.647970 -1.066225 -2.844238
  H 4.921607 0.206673 -2.903474
  H 0.692998 0.977588 0.610682
  H 0.848614 -0.436672 -0.534846
  H 3.260307 0.558398 -2.341540
  H 4.047855 1.164156 1.578917
  H 3.446199 -0.103145 2.627604
  H 2.711667 -1.737804 -0.626440
  H 5.151497 0.104155 -0.463216
 16
 19.063149
  C 1.166212 0.139653 0.402474
  C 2.465793 -0.084189 0.737624
  C 3.170137 0.635979 1.828337
  H 2.467895 1.211932 2.422401
  C 3.148535 -0.829262 -0.278551
  C 4.250162 -0.328686 -0.942118
  C 4.216808 -0.245072 -2.395269
  H 3.800299 -1.135153 -2.864196
  H 5.160026 0.049497 -2.842771
  H 0.570907 0.881697 0.903285
  H 0.682050 -0.417188 -0.381077
  H 3.482656 0.555087 -2.567113
  H 3.937141 1.306357 1.451199
  H 3.665268 -0.090911 2.470225
  H 2.584946 -1.623226 -0.757386
  H 5.020037 0.214543 -0.407238
 16
 14.512876
  C 1.136067 0.218327 0.494400
  C 2.450509 -0.055123 0.762583
  C 3.186565 0.535977 1.904875
  H 2.524679 1.116443 2.538716
  C 3.094369 -0.728747 -0.336172
  C 4.135846 -0.136112 -1.014270
  C 4.299298 -0.346739 -2.455132
  H 4.180301 -1.388322 -2.746871
  H 5.217030 0.076387 -2.850370
  H 0.605742 0.988561 1.023815
  H 0.607084 -0.270888 -0.304975
  H 3.464520 0.182239 -2.918274
  H 4.009158 1.166881 1.579793
  H 3.631887 -0.265297 2.492359
  H 2.523098 -1.493197 -0.847394
  H 4.722720 0.640669 -0.543255
