22

C 0.913174 0.048673 0.273151
C 2.408797 0.059146 0.08745
C 3.244471 -0.012522 1.357692
H 2.74082569157431 -0.06571148817898058 2.3002482485327067
C 2.999023 0.127499 -1.123893
C 2.354947 0.204919 -2.495941
C 0.844596 0.217448 -2.717876
H 0.6135615675278392 0.27630497382298425 -3.7609766411869696
C 4.456197 0.132471 -1.211914
C 5.195559 0.195128 -2.322449
H 6.265453454676777 0.19597954545137322 -2.3374533567748896
H 0.592769 -0.009936 1.311782
H 0.473026 -0.819226 -0.210027
H 0.473027 0.965418 -0.109326
H 3.889937 0.871493 1.389749
H 3.889934 -0.894534 1.290101
H 2.741227 -0.64361 -3.071075
H 2.741226 1.112769 -2.971966
H 0.392133 1.07853 -2.228185
H 0.392137 -0.69326 -2.328165
H 5.001727 0.079894 -0.280123
H 4.817683 0.25198 -3.329904
