 20
 0.000000
  C 1.006600 -0.071485 0.047722
  C 2.502916 -0.082175 0.026739
  C 3.219639 -0.594706 -0.979448
  C 4.657053 -0.605681 -1.000992
  C 5.378067 -1.120873 -2.012398
  C 6.816197 -1.130857 -2.031995
  C 7.534976 -1.642519 -3.036480
  C 9.024821 -1.662080 -3.074875
  H 0.643202 0.394424 0.962374
  H 0.611548 -1.086305 0.007997
  H 0.611551 0.493053 -0.796510
  H 3.002959 0.353247 0.881547
  H 2.709058 -1.028238 -1.830533
  H 5.161466 -0.170837 -0.147324
  H 4.874094 -1.555783 -2.866200
  H 7.322582 -0.696369 -1.179022
  H 7.036287 -2.078741 -3.892841
  H 9.458072 -1.208897 -2.185206
  H 9.384158 -1.116478 -3.948682
  H 9.384155 -2.689681 -3.147321
 20
 12.865532
  C 0.857076 -0.058299 0.073607
  C 2.513679 -0.063782 0.062845
  C 3.232583 -0.575733 -0.942202
  C 4.662047 -0.584734 -0.959871
  C 5.435210 -1.138770 -2.047534
  C 6.863889 -1.147444 -2.064554
  C 7.587636 -1.658796 -3.068433
  C 9.076209 -1.677754 -3.105650
  H 0.493927 0.405791 0.984685
  H 0.478453 -1.074695 0.027534
  H 0.478456 0.502029 -0.775630
  H 2.998708 0.373428 0.921164
  H 2.725372 -1.010230 -1.795182
  H 5.172726 -0.152749 -0.111815
  H 4.924697 -1.570702 -2.895485
  H 7.367794 -0.712346 -1.210383
  H 7.090668 -2.095247 -3.925245
  H 9.504810 -1.223967 -2.214793
  H 9.437267 -1.133334 -3.979158
  H 9.437266 -2.704421 -3.178878
 20
 38.300699
  C 0.695877 -0.070818 0.049023
  C 2.583742 -0.038479 0.112509
  C 3.285652 -0.549967 -0.891618
  C 4.705266 -0.562753 -0.916708
  C 5.465102 -1.135361 -2.040817
  C 6.878024 -1.151138 -2.071787
  C 7.598157 -1.667537 -3.085587
  C 9.086093 -1.693885 -3.137325
  H 0.364534 0.395006 0.963488
  H 0.431837 -1.113876 -0.017523
  H 0.431845 0.488610 -0.833807
  H 2.967148 0.415462 1.003662
  H 2.776300 -0.984830 -1.745328
  H 5.261949 -0.142594 -0.091874
  H 4.906504 -1.554405 -2.863471
  H 7.391161 -0.717570 -1.220616
  H 7.088605 -2.101276 -3.937097
  H 9.518990 -1.240568 -2.247369
  H 9.443992 -1.155708 -4.016650
  H 9.443990 -2.721574 -3.219036
 20
 67.562994
  C 0.496382 -0.075359 0.040128
  C 2.665475 -0.022917 0.143074
  C 3.345270 -0.537306 -0.866756
  C 4.764800 -0.559212 -0.909758
  C 5.490489 -1.129054 -2.028432
  C 6.929279 -1.155939 -2.081235
  C 7.625597 -1.672301 -3.094951
  C 9.099184 -1.708404 -3.165822
  H 0.209307 0.392861 0.959284
  H 0.295904 -1.131769 -0.022206
  H 0.295908 0.495362 -0.851058
  H 3.003879 0.441585 1.054965
  H 2.833131 -0.964396 -1.705200
  H 5.336592 -0.149404 -0.105250
  H 4.906199 -1.542047 -2.839205
  H 7.460525 -0.726008 -1.237193
  H 7.101749 -2.101333 -3.937215
  H 9.540075 -1.258503 -2.282599
  H 9.449773 -1.170111 -4.045093
  H 9.449795 -2.736137 -3.247415
 20
 92.415897
  C 0.276908 -0.079351 0.032252
  C 2.747258 -0.009845 0.168763
  C 3.407891 -0.524607 -0.841800
  C 4.848757 -0.558652 -0.908653
  C 5.537481 -1.115806 -2.002430
  C 6.957534 -1.154247 -2.077932
  C 7.634312 -1.677092 -3.104344
  C 9.123297 -1.726533 -3.201444
  H 0.031197 0.397672 0.968683
  H 0.130906 -1.153972 -0.025680
  H 0.130948 0.505631 -0.871028
  H 3.049627 0.462202 1.095484
  H 2.887292 -0.948391 -1.673752
  H 5.426219 -0.148422 -0.103325
  H 4.956889 -1.523853 -2.803434
  H 7.497572 -0.731237 -1.247489
  H 7.089933 -2.103469 -3.941412
  H 9.587529 -1.278761 -2.322417
  H 9.465214 -1.189787 -4.090206
  H 9.465271 -2.761091 -3.289873
 20
 109.951818
  C 0.059111 -0.087450 0.016340
  C 2.831153 0.007082 0.202050
  C 3.478173 -0.509074 -0.811293
  C 4.918453 -0.556623 -0.904705
  C 5.569557 -1.100176 -1.971783
  C 6.998215 -1.153496 -2.076557
  C 7.649393 -1.681538 -3.113069
  C 9.134753 -1.745532 -3.238692
  H -0.139278 0.394330 0.962160
  H -0.012568 -1.165441 -0.037838
  H -0.012511 0.502602 -0.887450
  H 3.086552 0.482452 1.135350
  H 2.948937 -0.932939 -1.643402
  H 5.497847 -0.145802 -0.098196
  H 4.981892 -1.509167 -2.774490
  H 7.557983 -0.734299 -1.253612
  H 7.086283 -2.101596 -3.937742
  H 9.619158 -1.302122 -2.368254
  H 9.463268 -1.214027 -4.130443
  H 9.463262 -2.779350 -3.333061
 20
 120.864024
  C -0.139538 -0.090493 0.010359
  C 2.885896 0.024736 0.236667
  C 3.531400 -0.491391 -0.776591
  C 4.971627 -0.546742 -0.885288
  C 5.614620 -1.094412 -1.960440
  C 7.034106 -1.155159 -2.079747
  C 7.668434 -1.689804 -3.129310
  C 9.151043 -1.763880 -3.274741
  H -0.302118 0.388209 0.950114
  H -0.156650 -1.157858 -0.042935
  H -0.156604 0.493968 -0.884296
  H 3.111263 0.498820 1.167400
  H 2.994536 -0.919834 -1.617683
  H 5.545907 -0.130312 -0.067782
  H 5.031473 -1.508197 -2.772691
  H 7.607704 -0.736885 -1.258595
  H 7.091301 -2.107807 -3.949942
  H 9.653022 -1.323695 -2.410583
  H 9.471238 -1.230845 -4.178184
  H 9.471247 -2.808092 -3.374782
 20
 127.945964
  C -0.369173 -0.092560 0.006297
  C 2.943718 0.039644 0.265969
  C 3.575925 -0.476401 -0.747103
  C 5.019962 -0.543943 -0.879739
  C 5.632574 -1.083847 -1.939642
  C 7.088534 -1.160638 -2.090442
  C 7.697079 -1.695366 -3.140178
  C 9.190024 -1.784194 -3.314641
  H -0.484139 0.391953 0.957456
  H -0.319562 -1.150370 -0.045697
  H -0.319506 0.487386 -0.879995
  H 3.143864 0.514473 1.198142
  H 3.024192 -0.904765 -1.588025
  H 5.601900 -0.132312 -0.071679
  H 5.039538 -1.490625 -2.738140
  H 7.679598 -0.750889 -1.286043
  H 7.103280 -2.106519 -3.947338
  H 9.714347 -1.349867 -2.462013
  H 9.495595 -1.263987 -4.217644
  H 9.495604 -2.820377 -3.424790
 20
 131.613720
  C -0.560774 -0.091353 0.008618
  C 3.005139 0.050056 0.286384
  C 3.642291 -0.467163 -0.728980
  C 5.082837 -0.539696 -0.871391
  C 5.688702 -1.084483 -1.940881
  C 7.109890 -1.162352 -2.093775
  C 7.713176 -1.703955 -3.157032
  C 9.178012 -1.795111 -3.336044
  H -0.647150 0.391597 0.956698
  H -0.473265 -1.163668 -0.040690
  H -0.473208 0.499226 -0.887744
  H 3.197746 0.516989 1.203048
  H 3.088326 -0.891957 -1.562899
  H 5.666385 -0.126255 -0.059777
  H 5.091990 -1.496676 -2.750048
  H 7.708030 -0.750622 -1.285491
  H 7.116242 -2.113529 -3.961105
  H 9.703874 -1.364214 -2.490117
  H 9.480102 -1.271252 -4.243844
  H 9.480066 -2.837217 -3.446056
 20
 133.657688
  C -0.796783 -0.079482 0.031976
  C 3.049717 0.056710 0.299449
  C 3.678314 -0.459978 -0.714954
  C 5.130281 -0.541581 -0.875192
  C 5.715536 -1.081712 -1.935593
  C 7.155405 -1.169542 -2.108110
  C 7.741947 -1.711178 -3.171371
  C 9.220109 -1.811289 -3.367797
  H -0.844606 0.394029 0.961600
  H -0.666283 -1.151174 -0.014498
  H -0.666249 0.513049 -0.862145
  H 3.247426 0.521411 1.211796
  H 3.112336 -0.880357 -1.540231
  H 5.721947 -0.133216 -0.073483
  H 5.115924 -1.484725 -2.726661
  H 7.762517 -0.764113 -1.312180
  H 7.126804 -2.122181 -3.978273
  H 9.760560 -1.380118 -2.521328
  H 9.518545 -1.284264 -4.286599
  H 9.518578 -2.864601 -3.481762
 20
 134.444291
  C -1.009292 -0.071600 0.047531
  C 3.095220 0.055746 0.297576
  C 3.720958 -0.460916 -0.716766
  C 5.176768 -0.545164 -0.882202
  C 5.760586 -1.087868 -1.947643
  C 7.189790 -1.176568 -2.121890
  C 7.774029 -1.720576 -3.189811
  C 9.237521 -1.821890 -3.388560
  H -1.047986 0.419981 1.012619
  H -0.857938 -1.125327 0.003542
  H -0.857888 0.512463 -0.830767
  H 3.305906 0.524001 1.216874
  H 3.154488 -0.878271 -1.536078
  H 5.769190 -0.138277 -0.083421
  H 5.155024 -1.493693 -2.744240
  H 7.799604 -0.770914 -1.325526
  H 7.162585 -2.127156 -3.988006
  H 9.774584 -1.396177 -2.552769
  H 9.531981 -1.297982 -4.303274
  H 9.531928 -2.869878 -3.502604
 20
 134.289254
  C -1.211367 -0.049080 0.091670
  C 3.143926 0.055371 0.296801
  C 3.764854 -0.463993 -0.722822
  C 5.209548 -0.547951 -0.887674
  C 5.794600 -1.096983 -1.965538
  C 7.216529 -1.185629 -2.139613
  C 7.799412 -1.731000 -3.210257
  C 9.269671 -1.833827 -3.412025
  H -1.282019 0.434546 1.041102
  H -1.073757 -1.107546 0.047874
  H -1.073722 0.537791 -0.790172
  H 3.376160 0.527960 1.224582
  H 3.193741 -0.884317 -1.547970
  H 5.808660 -0.138937 -0.084724
  H 5.184572 -1.502980 -2.762551
  H 7.828206 -0.779119 -1.341565
  H 7.186537 -2.136716 -4.006762
  H 9.813172 -1.406157 -2.572386
  H 9.562191 -1.312903 -4.323645
  H 9.562170 -2.877646 -3.526720
 20
 134.301215
  C -1.430941 -0.023465 0.142146
  C 3.189837 0.053705 0.293564
  C 3.805161 -0.467146 -0.728941
  C 5.249622 -0.553868 -0.899216
  C 5.829009 -1.103062 -1.977357
  C 7.251935 -1.194607 -2.157075
  C 7.830137 -1.740805 -3.229347
  C 9.298578 -1.846209 -3.436320
  H -1.558575 0.457611 1.086560
  H -1.302528 -1.082400 0.098524
  H -1.302439 0.564090 -0.740481
  H 3.435514 0.524131 1.217046
  H 3.231592 -0.885703 -1.550599
  H 5.852625 -0.145492 -0.097536
  H 5.215620 -1.507982 -2.772279
  H 7.864937 -0.790529 -1.363844
  H 7.214979 -2.144690 -4.022188
  H 9.844946 -1.419500 -2.598597
  H 9.589121 -1.324952 -4.349307
  H 9.589030 -2.890867 -3.551468
 20
 134.312265
  C -1.651969 0.003156 0.194981
  C 3.230533 0.054138 0.294563
  C 3.839250 -0.467998 -0.730474
  C 5.283721 -0.558149 -0.907597
  C 5.857428 -1.108812 -1.988615
  C 7.279367 -1.203606 -2.174802
  C 7.851853 -1.751072 -3.249463
  C 9.318680 -1.859527 -3.462320
  H -1.846267 0.479138 1.129540
  H -1.521927 -1.054834 0.152594
  H -1.521696 0.591971 -0.687556
  H 3.480167 0.524308 1.217491
  H 3.259048 -0.886391 -1.551735
  H 5.889033 -0.153191 -0.112694
  H 5.238072 -1.512926 -2.781794
  H 7.895926 -0.801588 -1.385678
  H 7.232256 -2.153883 -4.040136
  H 9.871222 -1.432397 -2.623715
  H 9.606375 -1.338856 -4.377444
  H 9.605956 -2.904813 -3.578985
