 16
 0.000000
  C 0.963496 0.044453 0.203537
  C 2.464755 0.049908 0.153246
  C 3.212694 -0.031703 1.452153
  H 2.528844 -0.080896 2.296257
  C 3.101571 0.120035 -1.024817
  H 2.532063 0.157509 -1.946167
  C 4.534736 0.130937 -1.210268
  C 5.112307 0.195460 -2.410127
  H 6.182960 0.202221 -2.530209
  H 0.599098 -0.022330 1.225459
  H 0.565962 -0.799756 -0.359489
  H 0.563718 0.953425 -0.245545
  H 3.856323 0.837094 1.583771
  H 3.842887 -0.920269 1.463747
  H 5.155545 0.084507 -0.327021
  H 4.529680 0.243718 -3.316381
 16
 -0.054580
  C 0.975840 0.091709 0.202870
  C 2.477641 0.057519 0.155076
  C 3.205730 -0.050967 1.463102
  H 2.541934 -0.413238 2.244371
  C 3.111963 0.105205 -1.022681
  H 2.527794 0.139125 -1.934401
  C 4.541324 0.127368 -1.223429
  C 5.108113 0.149840 -2.426851
  H 6.176635 0.174549 -2.555260
  H 0.609964 0.061625 1.225609
  H 0.556346 -0.756531 -0.337477
  H 0.599623 0.998453 -0.269839
  H 3.593975 0.920001 1.771894
  H 4.040709 -0.742571 1.374932
  H 5.168155 0.139514 -0.342670
  H 4.518619 0.145991 -3.329334
 16
 0.363366
  C 0.978179 0.151680 0.213667
  C 2.477975 0.082476 0.157749
  C 3.196671 -0.070625 1.464061
  H 2.627606 -0.727514 2.120541
  C 3.116899 0.090398 -1.017735
  H 2.542016 0.077253 -1.936609
  C 4.544735 0.153202 -1.229252
  C 5.103540 0.097347 -2.435433
  H 6.168288 0.171178 -2.575365
  H 0.623737 0.143623 1.241032
  H 0.532105 -0.692300 -0.311855
  H 0.621927 1.061784 -0.267574
  H 3.319621 0.886285 1.970367
  H 4.167745 -0.524997 1.291002
  H 5.177239 0.283005 -0.362164
  H 4.510993 -0.021949 -3.327945
 16
 3.198179
  C 0.980875 0.235163 0.226492
  C 2.468178 0.049086 0.151833
  C 3.201343 -0.109504 1.449259
  H 2.744453 -0.939444 1.992759
  C 3.110174 -0.052572 -1.018199
  H 2.568357 -0.163791 -1.950786
  C 4.520392 0.187947 -1.233894
  C 5.102814 0.089728 -2.426423
  H 6.141806 0.328127 -2.574591
  H 0.652422 0.313274 1.259724
  H 0.452369 -0.596266 -0.240738
  H 0.693589 1.143134 -0.301496
  H 3.149833 0.773182 2.082489
  H 4.228680 -0.400214 1.240913
  H 5.110851 0.513512 -0.388703
  H 4.553521 -0.217968 -3.301329
 16
 13.618852
  C 0.981668 0.333468 0.213692
  C 2.438143 0.005005 0.163740
  C 3.214241 -0.151466 1.436003
  H 2.896850 -1.093512 1.897751
  C 3.126199 -0.223439 -0.969716
  H 2.632294 -0.511703 -1.895087
  C 4.467696 0.247918 -1.225671
  C 5.090822 0.105611 -2.394926
  H 6.050515 0.555385 -2.584387
  H 0.666517 0.520295 1.236146
  H 0.366439 -0.470729 -0.192400
  H 0.792292 1.220672 -0.386472
  H 3.106013 0.642495 2.164859
  H 4.223464 -0.399841 1.102690
  H 4.954172 0.804511 -0.434418
  H 4.646840 -0.439203 -3.211802
 16
 31.060804
  C 0.983022 0.391456 0.191805
  C 2.402965 -0.047318 0.182703
  C 3.228118 -0.189573 1.430026
  H 3.027695 -1.155377 1.910621
  C 3.148217 -0.304695 -0.923765
  H 2.699157 -0.785917 -1.799301
  C 4.390938 0.346203 -1.242436
  C 5.085950 0.118431 -2.357865
  H 5.969484 0.683835 -2.594287
  H 0.662153 0.621362 1.200174
  H 0.317188 -0.373295 -0.210233
  H 0.874628 1.271571 -0.432841
  H 3.135839 0.607259 2.154667
  H 4.157852 -0.480807 0.935501
  H 4.808182 1.005826 -0.480344
  H 4.740918 -0.568377 -3.109761
 16
 57.411770
  C 0.999444 0.450231 0.121758
  C 2.405061 -0.024978 0.223744
  C 3.200875 -0.172209 1.459648
  H 3.247278 -1.183736 1.884071
  C 3.206656 -0.432350 -0.806677
  H 2.795070 -0.935108 -1.700710
  C 4.408331 0.281672 -1.167874
  C 4.994220 0.177145 -2.356764
  H 5.846354 0.779920 -2.619495
  H 0.624446 0.745841 1.094697
  H 0.352550 -0.334586 -0.271228
  H 0.933877 1.290985 -0.556556
  H 3.088690 0.550835 2.252454
  H 4.089032 -0.544586 0.779000
  H 4.775754 1.002455 -0.456764
  H 4.641904 -0.514026 -3.107257
 16
 79.219993
  C 1.016292 0.498969 0.132183
  C 2.401324 -0.021692 0.291304
  C 3.129305 -0.201597 1.484961
  H 3.274443 -1.200310 1.875636
  C 3.262763 -0.487893 -0.746120
  H 2.837807 -1.049795 -1.583993
  C 4.394024 0.339016 -1.190349
  C 4.998340 0.200254 -2.363603
  H 5.802886 0.848018 -2.663734
  H 0.611039 0.816748 1.089858
  H 0.379409 -0.289738 -0.272698
  H 0.981022 1.335218 -0.567882
  H 3.015037 0.514215 2.302397
  H 4.051941 -0.716028 0.458896
  H 4.720325 1.111559 -0.503136
  H 4.706616 -0.561549 -3.067201
 16
 62.265099
  C 1.036940 0.511847 0.113272
  C 2.410591 0.002053 0.349813
  C 3.045780 -0.145231 1.537442
  H 3.326007 -1.122389 1.903587
  C 3.303587 -0.544538 -0.701490
  H 2.871148 -1.148285 -1.491629
  C 4.441761 0.313546 -1.184177
  C 4.996611 0.209087 -2.373043
  H 5.775459 0.878189 -2.693315
  H 0.579708 0.830768 1.041416
  H 0.451319 -0.295601 -0.318800
  H 1.015382 1.343543 -0.591055
  H 2.933607 0.521460 2.395430
  H 3.991626 -0.850025 0.205668
  H 4.762515 1.090397 -0.500095
  H 4.605238 -0.459777 -3.127178
 16
 36.457894
  C 1.214131 0.584444 0.019011
  C 2.500230 -0.043134 0.420297
  C 2.961981 -0.208653 1.678708
  H 3.267509 -1.175911 2.030744
  C 3.410119 -0.663642 -0.595916
  H 2.946912 -1.264536 -1.369120
  C 4.347146 0.349676 -1.201979
  C 4.789376 0.301473 -2.441839
  H 5.435092 1.064320 -2.847864
  H 0.673420 0.957242 0.879752
  H 0.620788 -0.190472 -0.459105
  H 1.344624 1.393903 -0.698354
  H 2.656161 0.463344 2.485864
  H 4.112484 -1.045256 0.175895
  H 4.662110 1.134279 -0.540434
  H 4.562443 -0.521109 -3.091629
 16
 19.588737
  C 1.272462 0.588309 -0.041722
  C 2.515423 -0.084494 0.428531
  C 2.896287 -0.200369 1.692953
  H 3.415913 -1.070370 2.066094
  C 3.429903 -0.737321 -0.584238
  H 2.937802 -1.286297 -1.382052
  C 4.358436 0.300704 -1.153176
  C 4.713636 0.370947 -2.425304
  H 5.415604 1.103324 -2.781473
  H 0.770823 1.098264 0.772238
  H 0.614932 -0.180508 -0.432314
  H 1.464004 1.302876 -0.848891
  H 2.534866 0.428969 2.497484
  H 4.106387 -1.245626 0.113334
  H 4.715306 1.030470 -0.443284
  H 4.293464 -0.278934 -3.165052
 16
 8.864241
  C 1.356915 0.603346 -0.062880
  C 2.558284 -0.106023 0.473434
  C 2.833409 -0.217043 1.761048
  H 3.481417 -0.979114 2.159516
  C 3.466312 -0.749678 -0.543584
  H 2.930481 -1.288100 -1.321495
  C 4.341270 0.309444 -1.156207
  C 4.629306 0.393914 -2.448503
  H 5.272076 1.164329 -2.842101
  H 0.790374 1.077883 0.734029
  H 0.720477 -0.130175 -0.557411
  H 1.630545 1.356268 -0.802711
  H 2.316378 0.378660 2.498328
  H 4.135987 -1.384762 0.038531
  H 4.755043 1.020308 -0.451634
  H 4.236972 -0.309313 -3.165232
 16
 4.547348
  C 1.436852 0.622539 -0.099421
  C 2.566185 -0.153540 0.502652
  C 2.749863 -0.262891 1.807100
  H 3.574948 -0.817571 2.223411
  C 3.520203 -0.761479 -0.492264
  H 2.970888 -1.324783 -1.249798
  C 4.337715 0.306807 -1.156680
  C 4.530120 0.402620 -2.458260
  H 5.135333 1.181424 -2.890449
  H 0.822574 1.084398 0.668927
  H 0.809535 -0.035132 -0.701180
  H 1.826546 1.398517 -0.757710
  H 2.099504 0.215689 2.521041
  H 4.199278 -1.443480 0.026980
  H 4.782904 1.025918 -0.480838
  H 4.092798 -0.299094 -3.150384
