 17
 0.000000
  H 1.500091 0.167992 0.467405
  C 2.581285 0.156071 0.438620
  C 3.262060 0.639080 1.641250
  C 2.316156 1.082675 2.745403
  H 2.874447 1.429400 3.609815
  C 3.183316 -0.305942 -0.711207
  C 4.570124 -0.382802 -0.901265
  C 5.117820 -0.854443 -2.077755
  H 4.482543 -1.181358 -2.892131
  O 6.374275 -0.959055 -2.340144
  H 3.933330 1.466376 1.374622
  H 3.932773 -0.143161 2.020927
  H 1.676217 0.263140 3.062829
  H 1.676967 1.894642 2.407953
  H 2.547068 -0.630820 -1.521500
  H 5.233496 -0.065805 -0.108923
  H 6.981045 -0.670907 -1.626853
 17
 1.128527
  H 1.510129 0.212134 0.430539
  C 2.590510 0.164675 0.439604
  C 3.249536 0.621061 1.662117
  C 2.294551 1.102439 2.745755
  H 2.847642 1.423553 3.623576
  C 3.219819 -0.317283 -0.689209
  C 4.606254 -0.432316 -0.852833
  C 5.105005 -0.907609 -2.043709
  H 4.468722 -1.298456 -2.831991
  O 6.339487 -0.876742 -2.435316
  H 3.962642 1.416100 1.413206
  H 3.884816 -0.184175 2.050190
  H 1.613334 0.309015 3.045829
  H 1.703603 1.944358 2.394572
  H 2.576345 -0.616565 -1.503047
  H 5.265929 -0.097186 -0.068483
  H 6.986377 -0.551586 -1.776255
 17
 10.079056
  H 1.528351 0.213476 0.425820
  C 2.615047 0.167463 0.449416
  C 3.247898 0.633655 1.683158
  C 2.276848 1.114253 2.744908
  H 2.811099 1.452588 3.632137
  C 3.257708 -0.342351 -0.681509
  C 4.654179 -0.486315 -0.790290
  C 5.056817 -0.923697 -2.029751
  H 4.526500 -1.337928 -2.882737
  O 6.289775 -0.846740 -2.503083
  H 3.960987 1.425700 1.453216
  H 3.882724 -0.159361 2.075564
  H 1.591759 0.331885 3.015958
  H 1.696074 1.949632 2.364722
  H 2.561597 -0.630842 -1.450331
  H 5.283350 -0.155528 -0.000348
  H 6.966277 -0.489558 -1.889562
 17
 15.058532
  H 1.545105 0.207843 0.424905
  C 2.626796 0.156984 0.448376
  C 3.251177 0.621943 1.682749
  C 2.256275 1.114428 2.724846
  H 2.783791 1.491549 3.614281
  C 3.268973 -0.357395 -0.672084
  C 4.683299 -0.513591 -0.760235
  C 5.052170 -0.902011 -1.998150
  H 4.528526 -1.372263 -2.831344
  O 6.254964 -0.814583 -2.579146
  H 3.977309 1.427782 1.457170
  H 3.903367 -0.137292 2.131357
  H 1.562754 0.338892 3.027205
  H 1.677311 1.958163 2.329475
  H 2.569608 -0.634233 -1.438785
  H 5.278962 -0.222313 0.074846
  H 6.973239 -0.446221 -2.015296
 17
 16.864784
  H 1.545897 0.133114 0.404915
  C 2.620448 0.090830 0.461247
  C 3.230138 0.593224 1.685905
  C 2.266518 1.196573 2.686909
  H 2.801120 1.565558 3.553175
  C 3.300631 -0.439371 -0.627691
  C 4.679500 -0.661996 -0.693436
  C 5.059175 -0.865666 -1.991122
  H 4.514840 -1.368553 -2.793947
  O 6.192263 -0.612649 -2.594123
  H 3.994757 1.342476 1.434360
  H 3.889740 -0.156989 2.156549
  H 1.528530 0.468966 3.021393
  H 1.739251 2.031035 2.229868
  H 2.582947 -0.742320 -1.383480
  H 5.342538 -0.482069 0.131452
  H 6.897430 -0.175375 -2.064969
 17
 18.738719
  H 1.538230 -0.040575 0.506671
  C 2.608557 -0.047866 0.499350
  C 3.278716 0.567692 1.646654
  C 2.340790 1.280978 2.607132
  H 2.892090 1.687472 3.433948
  C 3.250260 -0.592166 -0.607627
  C 4.621017 -0.852452 -0.692229
  C 5.048397 -0.819502 -1.998256
  H 4.592516 -1.305950 -2.860688
  O 6.148041 -0.302093 -2.463155
  H 4.020128 1.296973 1.258537
  H 3.918555 -0.145355 2.169724
  H 1.587717 0.607747 2.995424
  H 1.828242 2.111454 2.098954
  H 2.529796 -0.914425 -1.346371
  H 5.255608 -0.773795 0.168538
  H 6.724965 0.155110 -1.812933
 17
 22.205412
  H 1.536826 -0.028726 0.485678
  C 2.615829 -0.083298 0.474305
  C 3.317394 0.592794 1.584799
  C 2.381513 1.288543 2.557765
  H 2.951485 1.799241 3.333008
  C 3.226636 -0.667028 -0.616317
  C 4.588832 -0.990682 -0.649640
  C 5.061169 -0.749502 -1.933440
  H 4.572346 -1.243370 -2.780031
  O 6.089562 -0.133091 -2.389034
  H 3.975276 1.351157 1.133860
  H 3.985643 -0.092173 2.101815
  H 1.713443 0.578884 3.042870
  H 1.778138 2.029559 2.051051
  H 2.517577 -1.022057 -1.349909
  H 5.182861 -0.985309 0.251718
  H 6.691165 0.265871 -1.720926
 17
 30.642871
  H 1.594910 -0.035698 0.406622
  C 2.672679 -0.093479 0.409055
  C 3.363962 0.605379 1.510354
  C 2.411074 1.303554 2.473021
  H 2.967902 1.778189 3.286587
  C 3.272782 -0.794393 -0.609053
  C 4.654749 -1.114789 -0.571235
  C 5.009705 -0.722321 -1.857697
  H 4.595894 -1.314482 -2.677829
  O 5.886820 0.098564 -2.304549
  H 4.082944 1.327428 1.122676
  H 3.963982 -0.122549 2.078198
  H 1.706547 0.597354 2.907845
  H 1.843477 2.074728 1.959855
  H 2.603234 -1.275651 -1.302907
  H 5.203840 -1.042787 0.357487
  H 6.358052 0.646156 -1.641607
 17
 42.590220
  H 1.642861 -0.198159 0.399716
  C 2.722843 -0.201999 0.372219
  C 3.421945 0.554588 1.420969
  C 2.487009 1.362598 2.312830
  H 3.057152 1.909095 3.062744
  C 3.333044 -0.906967 -0.643114
  C 4.699939 -1.349679 -0.558762
  C 4.848829 -0.575649 -1.711740
  H 4.494258 -1.009962 -2.642363
  O 5.606728 0.454930 -1.935496
  H 4.167115 1.226159 0.980148
  H 3.993477 -0.140464 2.047454
  H 1.787081 0.715561 2.827602
  H 1.920521 2.080880 1.729439
  H 2.672719 -1.388108 -1.358463
  H 5.278061 -1.486174 0.336422
  H 6.107198 0.797308 -1.170443
 17
 50.835432
  H 1.679715 -0.147942 0.315427
  C 2.761735 -0.163564 0.290981
  C 3.471242 0.551171 1.349409
  C 2.553663 1.339302 2.278227
  H 3.138585 1.844579 3.042234
  C 3.360623 -0.861293 -0.763066
  C 4.693808 -1.460177 -0.523686
  C 4.762995 -0.581763 -1.617528
  H 4.596561 -1.023655 -2.600358
  O 5.490717 0.520763 -1.770327
  H 4.215765 1.227189 0.911799
  H 4.053815 -0.157762 1.952591
  H 1.844494 0.682059 2.772759
  H 1.997561 2.090591 1.725215
  H 2.667331 -1.337685 -1.445703
  H 5.202030 -1.694634 0.386038
  H 5.872207 0.878689 -0.949031
