 22
 0.000000
  C 0.980240 0.159571 0.449096
  C 2.450696 0.135651 0.389297
  C 3.235741 0.599863 1.544183
  H 2.611461 0.930023 2.366385
  C 3.042937 -0.333469 -0.778397
  C 4.424664 -0.417880 -0.989405
  C 5.088740 -0.866096 -2.107378
  C 4.628773 -1.385185 -3.401918
  C 3.148305 -1.513086 -3.720829
  H 3.032116 -1.914877 -4.723113
  H 6.170195 -0.843253 -2.050818
  H 0.607360 0.539676 1.394756
  H 0.580953 -0.843332 0.288696
  H 0.580729 0.772430 -0.360713
  H 3.891523 1.420451 1.248132
  H 3.891875 -0.197171 1.898143
  H 2.374984 -0.648476 -1.562212
  H 5.056067 -0.090460 -0.173847
  H 5.107822 -2.366319 -3.524545
  H 5.107900 -0.760652 -4.168441
  H 2.655401 -0.544395 -3.691387
  H 2.655500 -2.193282 -3.030413
 22
 8.823817
  C 0.936775 0.173917 0.484806
  C 2.407138 0.139064 0.397769
  C 3.217703 0.597515 1.538382
  H 2.608024 0.931868 2.371229
  C 2.968174 -0.330173 -0.770295
  C 4.504684 -0.429628 -1.018721
  C 5.140993 -0.876620 -2.133672
  C 4.658126 -1.393106 -3.421699
  C 3.172782 -1.509758 -3.712433
  H 3.035164 -1.911018 -4.713363
  H 6.224016 -0.858850 -2.089741
  H 0.585575 0.556838 1.437526
  H 0.526472 -0.825708 0.331089
  H 0.526238 0.789053 -0.317882
  H 3.873787 1.413274 1.231526
  H 3.874221 -0.203475 1.881073
  H 2.297835 -0.642931 -1.548595
  H 5.135693 -0.104199 -0.207921
  H 5.129133 -2.377142 -3.553294
  H 5.129179 -0.772670 -4.196746
  H 2.687989 -0.537503 -3.674171
  H 2.688131 -2.186448 -3.013161
 22
 27.712502
  C 0.888700 0.191911 0.529416
  C 2.360125 0.144943 0.412277
  C 3.198371 0.597163 1.537861
  H 2.606627 0.935728 2.381628
  C 2.889739 -0.327065 -0.763017
  C 4.581690 -0.439976 -1.044896
  C 5.196312 -0.889412 -2.165896
  C 4.692081 -1.404852 -3.451003
  C 3.202098 -1.509707 -3.711927
  H 3.041223 -1.909770 -4.709599
  H 6.281004 -0.876232 -2.133493
  H 0.562168 0.577714 1.489571
  H 0.466187 -0.803947 0.383764
  H 0.466008 0.810088 -0.264724
  H 3.854848 1.407485 1.218457
  H 3.855327 -0.208713 1.867425
  H 2.224094 -0.640471 -1.543113
  H 5.201836 -0.112703 -0.229327
  H 5.154544 -2.391863 -3.591466
  H 5.154460 -0.788476 -4.234630
  H 2.726462 -0.533311 -3.663636
  H 2.726737 -2.182425 -3.002403
 22
 48.171493
  C 0.851845 0.211462 0.577715
  C 2.317896 0.145101 0.412534
  C 3.196315 0.585671 1.510016
  H 2.631209 0.930731 2.370348
  C 2.789717 -0.326525 -0.762284
  C 4.639803 -0.447143 -1.063560
  C 5.229966 -0.894066 -2.178101
  C 4.723785 -1.410323 -3.464628
  C 3.232086 -1.509214 -3.710028
  H 3.057721 -1.909046 -4.706695
  H 6.316433 -0.880538 -2.145031
  H 0.564342 0.601410 1.548636
  H 0.411436 -0.777770 0.441457
  H 0.411495 0.831747 -0.204900
  H 3.851253 1.388785 1.170994
  H 3.851836 -0.228777 1.819916
  H 2.156274 -0.644931 -1.554991
  H 5.204866 -0.109870 -0.223045
  H 5.183820 -2.397116 -3.610777
  H 5.183482 -0.798186 -4.252417
  H 2.763530 -0.530033 -3.655935
  H 2.764048 -2.179831 -2.994204
 22
 68.562470
  C 0.799348 0.230629 0.625438
  C 2.269201 0.152087 0.429951
  C 3.172876 0.587095 1.513824
  H 2.625849 0.936058 2.384109
  C 2.719130 -0.328973 -0.768514
  C 4.724105 -0.464064 -1.106091
  C 5.288416 -0.909501 -2.216741
  C 4.760354 -1.421109 -3.491414
  C 3.262924 -1.505122 -3.699710
  H 3.058643 -1.902826 -4.690862
  H 6.377181 -0.901471 -2.197343
  H 0.536418 0.622866 1.602242
  H 0.347351 -0.755371 0.498824
  H 0.347477 0.855360 -0.147906
  H 3.827701 1.384911 1.162381
  H 3.828195 -0.232116 1.810871
  H 2.087896 -0.651806 -1.572298
  H 5.276056 -0.122476 -0.254884
  H 5.209077 -2.412280 -3.646528
  H 5.208749 -0.812103 -4.288838
  H 2.806761 -0.520603 -3.632426
  H 2.807208 -2.170383 -2.970527
 22
 84.589272
  C 0.755961 0.252017 0.665728
  C 2.248776 0.147460 0.412231
  C 3.190992 0.570164 1.499351
  H 2.664929 0.918276 2.381519
  C 2.611430 -0.312462 -0.749165
  C 4.767684 -0.463740 -1.142398
  C 5.286794 -0.899201 -2.215395
  C 4.797764 -1.431434 -3.510902
  C 3.298325 -1.517800 -3.715632
  H 3.099473 -1.923162 -4.704287
  H 6.380936 -0.886483 -2.189276
  H 0.558384 0.643476 1.656014
  H 0.284070 -0.723873 0.560496
  H 0.288417 0.895362 -0.078432
  H 3.842129 1.364479 1.140283
  H 3.836017 -0.260564 1.777817
  H 2.016178 -0.644861 -1.576557
  H 5.239469 -0.104259 -0.254220
  H 5.246285 -2.420613 -3.647767
  H 5.243759 -0.822288 -4.303833
  H 2.842774 -0.532963 -3.654650
  H 2.845706 -2.178160 -2.980510
 22
 88.611609
  C 0.731098 0.279543 0.728322
  C 2.227838 0.147261 0.426320
  C 3.183589 0.566236 1.492275
  H 2.663421 0.919612 2.374457
  C 2.491142 -0.319619 -0.749261
  C 4.807938 -0.472127 -1.151493
  C 5.303535 -0.914896 -2.249030
  C 4.848107 -1.448649 -3.558787
  C 3.337851 -1.528297 -3.738940
  H 3.120742 -1.929616 -4.724773
  H 6.408456 -0.891379 -2.208954
  H 0.610829 0.679675 1.728748
  H 0.246065 -0.689505 0.665312
  H 0.258062 0.945418 0.013419
  H 3.819233 1.369113 1.124941
  H 3.811383 -0.275134 1.777809
  H 2.024287 -0.675718 -1.640942
  H 5.109004 -0.085417 -0.202441
  H 5.288080 -2.441646 -3.683872
  H 5.281139 -0.822071 -4.342890
  H 2.890708 -0.541643 -3.670748
  H 2.897994 -2.191226 -3.000624
 22
 94.975350
  C 0.697794 0.297426 0.774768
  C 2.181619 0.153647 0.444310
  C 3.152378 0.565670 1.487465
  H 2.647611 0.923059 2.377608
  C 2.417390 -0.315925 -0.735777
  C 4.887177 -0.486498 -1.182995
  C 5.358965 -0.928128 -2.278857
  C 4.880294 -1.459413 -3.586152
  C 3.371204 -1.523108 -3.728290
  H 3.125356 -1.921726 -4.709888
  H 6.458825 -0.910780 -2.253572
  H 0.605814 0.699234 1.776759
  H 0.204890 -0.668525 0.724174
  H 0.216746 0.968038 0.069437
  H 3.784060 1.363766 1.108115
  H 3.777442 -0.278931 1.762897
  H 1.965979 -0.674431 -1.632559
  H 5.160133 -0.099260 -0.232377
  H 5.307203 -2.454303 -3.720500
  H 5.300727 -0.836344 -4.376919
  H 2.937093 -0.530662 -3.647800
  H 2.943814 -2.182733 -2.978313
 22
 99.915256
  C 0.652385 0.316833 0.825770
  C 2.131487 0.162633 0.463880
  C 3.132678 0.567436 1.489434
  H 2.650169 0.928378 2.391401
  C 2.335831 -0.307491 -0.717767
  C 4.957976 -0.497820 -1.211945
  C 5.414355 -0.943705 -2.316985
  C 4.918121 -1.470285 -3.611757
  C 3.403574 -1.522775 -3.729007
  H 3.136168 -1.919665 -4.705497
  H 6.517286 -0.932904 -2.304662
  H 0.584931 0.719012 1.830524
  H 0.152368 -0.646619 0.785952
  H 0.162245 0.992588 0.130844
  H 3.762411 1.362283 1.096280
  H 3.756937 -0.283908 1.751147
  H 1.901838 -0.669444 -1.622872
  H 5.199844 -0.107664 -0.252547
  H 5.336313 -2.469808 -3.750280
  H 5.331042 -0.848006 -4.408830
  H 2.979523 -0.526934 -3.641087
  H 2.984923 -2.178306 -2.971165
 22
 103.428604
  C 0.614335 0.336953 0.877763
  C 2.082189 0.169385 0.480961
  C 3.104891 0.564963 1.480707
  H 2.643971 0.929398 2.391161
  C 2.258367 -0.302776 -0.704447
  C 5.033952 -0.510066 -1.240330
  C 5.472359 -0.955802 -2.345247
  C 4.952381 -1.480801 -3.637742
  C 3.436782 -1.518561 -3.720198
  H 3.142381 -1.912333 -4.690098
  H 6.575285 -0.951090 -2.346853
  H 0.577531 0.739736 1.883063
  H 0.105954 -0.621266 0.851651
  H 0.115045 1.017344 0.195735
  H 3.730157 1.353657 1.073659
  H 3.725648 -0.290559 1.728645
  H 1.841386 -0.667190 -1.615290
  H 5.243563 -0.118415 -0.276579
  H 5.358558 -2.482849 -3.783776
  H 5.353936 -0.861474 -4.441342
  H 3.025654 -0.518323 -3.621498
  H 3.030372 -2.169995 -2.952154
 22
 106.048222
  C 0.572162 0.356286 0.928524
  C 2.030250 0.176617 0.496143
  C 3.083614 0.563466 1.475023
  H 2.646645 0.931428 2.397500
  C 2.176821 -0.295705 -0.690247
  C 5.105655 -0.520836 -1.268153
  C 5.529812 -0.969862 -2.379833
  C 4.988260 -1.490403 -3.660090
  C 3.470251 -1.514151 -3.710511
  H 3.150100 -1.905504 -4.673479
  H 6.633057 -0.972483 -2.396550
  H 0.563418 0.758955 1.935405
  H 0.055753 -0.598989 0.914682
  H 0.062905 1.042618 0.258429
  H 3.706394 1.348524 1.053014
  H 3.702872 -0.299433 1.707849
  H 1.778217 -0.663068 -1.608844
  H 5.280750 -0.127107 -0.298062
  H 5.383362 -2.496383 -3.811389
  H 5.379862 -0.873254 -4.470522
  H 3.071509 -0.509658 -3.602653
  H 3.075049 -2.160982 -2.932514
 22
 107.772366
  C 0.535318 0.376350 0.981008
  C 1.979634 0.183380 0.511700
  C 3.056242 0.559891 1.463944
  H 2.643183 0.930405 2.394670
  C 2.098580 -0.290008 -0.677462
  C 5.181216 -0.531840 -1.294804
  C 5.589184 -0.981325 -2.406990
  C 5.021801 -1.499887 -3.682558
  C 3.503088 -1.508209 -3.697116
  H 3.155526 -1.896132 -4.651688
  H 6.692205 -0.991169 -2.439491
  H 0.557344 0.778433 1.987190
  H 0.011208 -0.573514 0.980708
  H 0.016887 1.067554 0.324945
  H 3.673808 1.338825 1.027917
  H 3.671431 -0.307557 1.681487
  H 1.718173 -0.659487 -1.601581
  H 5.321541 -0.136847 -0.320827
  H 5.404397 -2.509115 -3.840665
  H 5.401884 -0.885672 -4.500154
  H 3.118167 -0.499716 -3.579109
  H 3.120751 -2.150256 -2.909074
 22
 108.979839
  C 0.489520 0.396587 1.034880
  C 1.924442 0.192932 0.533711
  C 3.032318 0.562302 1.466971
  H 2.643026 0.936178 2.408542
  C 2.021171 -0.279907 -0.654163
  C 5.254527 -0.543867 -1.323672
  C 5.651092 -0.996914 -2.443712
  C 5.058486 -1.509995 -3.706145
  C 3.538253 -1.506155 -3.694453
  H 3.169686 -1.891350 -4.642516
  H 6.753250 -1.015369 -2.494327
  H 0.532652 0.798486 2.041391
  H -0.041749 -0.550867 1.044932
  H -0.038145 1.092358 0.388739
  H 3.647741 1.337782 1.016559
  H 3.646907 -0.311669 1.670443
  H 1.646984 -0.649670 -1.578694
  H 5.378778 -0.148575 -0.348105
  H 5.430412 -2.523195 -3.868841
  H 5.429480 -0.897182 -4.529757
  H 3.163553 -0.494064 -3.568979
  H 3.164471 -2.144534 -2.898556
 22
 109.743895
  C 0.459418 0.416260 1.086105
  C 1.875119 0.198483 0.547741
  C 3.000169 0.556349 1.450190
  H 2.634476 0.932478 2.397945
  C 1.945210 -0.275811 -0.643390
  C 5.332799 -0.555345 -1.350276
  C 5.710888 -1.007247 -2.467338
  C 5.088383 -1.517612 -3.724371
  C 3.570695 -1.495410 -3.669419
  H 3.170821 -1.875684 -4.606284
  H 6.811885 -1.033772 -2.536580
  H 0.536023 0.817309 2.089986
  H -0.079179 -0.524522 1.110938
  H -0.076578 1.116599 0.455209
  H 3.608923 1.324834 0.985730
  H 3.609131 -0.321454 1.638501
  H 1.587812 -0.647894 -1.573781
  H 5.423025 -0.159287 -0.372476
  H 5.445378 -2.533503 -3.895441
  H 5.445332 -0.908758 -4.555552
  H 3.212798 -0.479525 -3.532365
  H 3.212872 -2.128385 -2.862910
