15

H -2.4851706158831464 0.700793310325462 -0.056220154307896605
C -2.071025 0.588421 -0.027771
C -1.649768 -0.471576 0.639299
C -0.235815 -0.938442 0.797173
C 0.814154 -0.075595 0.106328
C 2.2243 -0.613541 0.342475
H 2.5472802222969433 -0.3638654551571903 0.120127735479297
H -1.369167 1.231806 -0.53901
H -2.377626 -1.098772 1.140513
H -0.010269 -0.991285 1.866916
H -0.170501 -1.960042 0.409408
H 0.613091 -0.053147 -0.966249
H 0.753591 0.94485 0.488349
H 2.424732 -0.601129 1.415632
H 2.265962 -1.65461 0.019051
