19
 0
 C -3.64825309 -0.57980998 0.46604220
 C -2.18379469 -0.95261834 0.26998833
 C -2.04227855 -1.93102391 -0.89484783
 C -1.21582274 0.21438217 0.06761529
 C -1.71585750 1.62875686 -0.07902471
 O 0.00000000 0.00000000 0.00000000
 H -4.24970468 -1.47199842 0.67206972
 H -4.06469374 -0.09855809 -0.42554075
 H -3.77164924 0.10160260 1.31428757
 H -1.85286399 -1.45342400 1.18931168
 H -2.32809713 -1.46161250 -1.84253009
 H -2.67374495 -2.81310421 -0.74423181
 H -1.00785379 -2.27677900 -0.99718083
 H -2.79106196 1.72570082 0.05952284
 H -1.46572556 1.99120166 -1.07968810
 H -1.22461280 2.25267539 0.67333460
 O 2.70000000 0.00000000 0.00000000
 H 3.38474093 0.23913281 0.64258244
 H 3.18881206 -0.44606170 -0.70784698
