 19
 0.000000
  C -3.656696 -0.557430 0.484284
  C -2.223672 -0.943113 0.275635
  C -2.014046 -1.864299 -0.906784
  C -1.176233 0.221953 0.055985
  C -1.757852 1.581971 -0.090939
  O -0.022175 -0.037917 -0.012909
  H -4.220055 -1.465660 0.705586
  H -4.109957 -0.129580 -0.406346
  H -3.786721 0.102657 1.336609
  H -1.829686 -1.396811 1.194632
  H -2.324485 -1.409050 -1.845688
  H -2.637292 -2.747739 -0.769488
  H -0.973424 -2.163691 -0.992352
  H -2.827743 1.631884 0.050039
  H -1.487908 1.926503 -1.090848
  H -1.243622 2.223311 0.626477
  O 2.734904 -0.035216 0.007457
  H 3.391436 0.220475 0.662491
  H 3.202768 -0.489788 -0.699978
 19
 1.571229
  C -3.605483 -0.550508 0.498454
  C -2.162266 -0.947515 0.276978
  C -1.956666 -1.860833 -0.920770
  C -1.119493 0.227165 0.056140
  C -1.704443 1.578082 -0.098743
  O 0.042289 -0.026765 -0.003046
  H -4.169615 -1.459112 0.735342
  H -4.069062 -0.131217 -0.394367
  H -3.728272 0.115261 1.350871
  H -1.748806 -1.400346 1.193893
  H -2.283749 -1.395603 -1.851655
  H -2.576582 -2.751114 -0.782601
  H -0.913089 -2.157656 -1.017811
  H -2.773361 1.622581 0.037205
  H -1.429267 1.924554 -1.108113
  H -1.189081 2.235639 0.619653
  O 2.432499 -0.059878 0.021636
  H 3.089467 0.206579 0.672809
  H 2.903255 -0.495081 -0.699284
 19
 7.721130
  C -3.536344 -0.535477 0.521091
  C -2.115356 -0.964198 0.279384
  C -1.952636 -1.880719 -0.950122
  C -1.059891 0.197679 0.043978
  C -1.617359 1.563731 -0.114300
  O 0.088486 -0.118461 -0.013808
  H -4.106766 -1.435856 0.774311
  H -4.005165 -0.107787 -0.367349
  H -3.631319 0.139837 1.374907
  H -1.698551 -1.435761 1.179228
  H -2.289061 -1.391513 -1.866620
  H -2.585452 -2.758777 -0.806956
  H -0.918165 -2.203355 -1.072038
  H -2.694632 1.640814 0.019562
  H -1.338424 1.897460 -1.107815
  H -1.099678 2.203667 0.589261
  O 2.152544 -0.054670 0.068490
  H 2.782583 0.313573 0.706082
  H 2.670508 -0.388666 -0.671824
 19
 24.342815
  C -3.474356 -0.526533 0.525408
  C -2.058684 -0.971999 0.273919
  C -1.947951 -1.907600 -0.963939
  C -1.035989 0.190385 0.041701
  C -1.545149 1.562377 -0.110284
  O 0.121936 -0.178281 -0.014725
  H -4.043213 -1.421533 0.777834
  H -3.932970 -0.089427 -0.353285
  H -3.552348 0.148481 1.369351
  H -1.650882 -1.460732 1.154621
  H -2.295329 -1.395668 -1.866636
  H -2.593070 -2.778589 -0.798712
  H -0.919938 -2.250143 -1.103191
  H -2.606223 1.664211 0.013858
  H -1.255202 1.900629 -1.109254
  H -1.022242 2.211244 0.595864
  O 1.918287 -0.049725 0.089068
  H 2.501066 0.400561 0.729820
  H 2.453059 -0.330104 -0.669801
 19
 46.706908
  C -3.446095 -0.519224 0.537315
  C -2.023902 -0.973640 0.263042
  C -1.968632 -1.958604 -0.987700
  C -1.024221 0.141760 0.032378
  C -1.416473 1.544494 -0.106159
  O 0.161963 -0.310920 -0.060717
  H -4.034183 -1.397252 0.780827
  H -3.894712 -0.055948 -0.330825
  H -3.497044 0.152838 1.385012
  H -1.638433 -1.518613 1.128437
  H -2.309874 -1.433170 -1.878078
  H -2.633078 -2.799163 -0.791785
  H -0.957036 -2.320716 -1.129875
  H -2.473710 1.708547 0.021345
  H -1.109131 1.883554 -1.100412
  H -0.856013 2.164927 0.595452
  O 1.713715 0.056699 0.107563
  H 2.222419 0.585887 0.773861
  H 2.270831 -0.177157 -0.664442
 19
 67.204284
  C -3.384022 -0.518517 0.553472
  C -1.976720 -1.004339 0.256415
  C -1.992180 -1.975578 -0.989579
  C -1.001687 0.103101 0.014722
  C -1.285509 1.544827 -0.132221
  O 0.223478 -0.450126 -0.153654
  H -4.007602 -1.376551 0.793713
  H -3.823284 -0.029302 -0.311610
  H -3.402142 0.152740 1.411186
  H -1.617513 -1.580195 1.118744
  H -2.337450 -1.436046 -1.864959
  H -2.673186 -2.801899 -0.782199
  H -0.995875 -2.373170 -1.163160
  H -2.333099 1.742725 0.018553
  H -1.012469 1.891939 -1.133840
  H -0.715831 2.136149 0.582488
  O 1.490755 0.181846 0.111559
  H 1.874002 0.695794 0.891452
  H 2.091766 -0.041221 -0.640760
 19
 76.004864
  C -3.364112 -0.508444 0.561027
  C -1.956616 -1.005768 0.259248
  C -1.995769 -1.983692 -0.978203
  C -0.989541 0.091229 0.014306
  C -1.215238 1.544740 -0.125309
  O 0.309385 -0.486240 -0.193715
  H -4.003038 -1.360380 0.792137
  H -3.793547 -0.007740 -0.299223
  H -3.375300 0.159677 1.413073
  H -1.615447 -1.599466 1.118942
  H -2.334229 -1.446523 -1.854842
  H -2.688803 -2.796286 -0.768544
  H -1.005548 -2.400131 -1.156409
  H -2.264622 1.764429 0.036940
  H -0.949590 1.895082 -1.134011
  H -0.636713 2.132582 0.585698
  O 1.368143 0.249918 0.062876
  H 1.618937 0.682580 0.927156
  H 2.047122 0.052630 -0.643764
 19
 86.715342
  C -3.363108 -0.502275 0.597844
  C -1.954202 -0.989645 0.290830
  C -2.008266 -1.989178 -1.004778
  C -1.001209 0.092001 0.038594
  C -1.179789 1.543867 -0.145465
  O 0.386051 -0.474437 -0.183835
  H -3.992114 -1.344611 0.864213
  H -3.806200 -0.024898 -0.268285
  H -3.362166 0.198465 1.428702
  H -1.602336 -1.620200 1.109473
  H -2.335955 -1.427475 -1.868954
  H -2.694772 -2.797476 -0.793688
  H -1.010636 -2.389093 -1.181194
  H -2.232778 1.779058 -0.015465
  H -0.903021 1.858427 -1.154320
  H -0.613797 2.152494 0.564014
  O 1.296181 0.326525 0.031867
  H 1.501602 0.569193 0.979082
  H 2.053770 0.136830 -0.610161
 19
 105.717579
  C -3.372888 -0.491449 0.626244
  C -1.964144 -0.972491 0.322557
  C -2.018367 -2.010107 -1.047312
  C -1.021011 0.105587 0.074465
  C -1.183805 1.543354 -0.159069
  O 0.456497 -0.457723 -0.137275
  H -4.009514 -1.347397 0.884581
  H -3.810571 0.001573 -0.234660
  H -3.374017 0.191174 1.460744
  H -1.611474 -1.618951 1.120628
  H -2.360166 -1.426245 -1.892171
  H -2.712943 -2.808301 -0.819834
  H -1.020336 -2.392793 -1.208562
  H -2.235461 1.794764 -0.048829
  H -0.871670 1.831487 -1.171800
  H -0.617764 2.158566 0.543434
  O 1.288417 0.362664 0.019455
  H 1.550041 0.551247 0.986228
  H 2.085132 0.179750 -0.577335
 19
 127.900683
  C -3.385389 -0.473047 0.655371
  C -1.975564 -0.941757 0.362101
  C -2.035607 -2.056622 -1.112492
  C -1.047624 0.121128 0.108784
  C -1.185283 1.552249 -0.159708
  O 0.524505 -0.462588 -0.079546
  H -4.015519 -1.330206 0.903469
  H -3.820330 0.023589 -0.206903
  H -3.394926 0.208777 1.498901
  H -1.620479 -1.606465 1.148837
  H -2.380728 -1.462139 -1.943993
  H -2.731402 -2.847815 -0.868885
  H -1.030548 -2.428967 -1.261874
  H -2.234632 1.816798 -0.066403
  H -0.856761 1.816770 -1.173397
  H -0.618752 2.173621 0.539375
  O 1.300040 0.384933 0.026719
  H 1.612514 0.578554 0.982987
  H 2.104218 0.209938 -0.566268
 19
 151.041572
  C -3.409941 -0.452861 0.707512
  C -1.986050 -0.882899 0.432707
  C -2.056680 -2.128970 -1.233424
  C -1.101038 0.143527 0.165636
  C -1.180027 1.554000 -0.173481
  O 0.579616 -0.461458 0.022364
  H -4.017396 -1.321562 0.935736
  H -3.845552 0.045742 -0.155079
  H -3.444230 0.221355 1.563604
  H -1.625509 -1.576768 1.177483
  H -2.415667 -1.495749 -2.029690
  H -2.745217 -2.902828 -0.944865
  H -1.040605 -2.461043 -1.351305
  H -2.225880 1.847632 -0.115095
  H -0.822687 1.765276 -1.186444
  H -0.611245 2.182554 0.516718
  O 1.331038 0.411016 0.046662
  H 1.698290 0.640685 0.977262
  H 2.126758 0.225314 -0.559495
 19
 104.922568
  C -3.422226 -0.112749 1.082177
  C -1.975947 -0.464655 0.946179
  C -1.992878 -2.959629 -2.163978
  C -1.049042 0.354713 0.498055
  C -1.143994 1.711795 -0.100795
  O 0.272139 -0.258217 0.493070
  H -4.008047 -1.011346 1.198403
  H -3.792814 0.427457 0.207217
  H -3.578680 0.514116 1.964754
  H -1.651100 -1.344743 1.464275
  H -2.372793 -2.246899 -2.862002
  H -2.671919 -3.634602 -1.674425
  H -0.945207 -3.152023 -2.120202
  H -2.161706 2.074592 0.028661
  H -0.919146 1.700337 -1.165301
  H -0.474165 2.406620 0.395404
  O 1.338422 0.584984 0.153049
  H 1.917768 0.703305 0.967397
  H 1.834355 0.121298 -0.588492
 19
 100.436985
  C -3.414606 0.036206 1.243628
  C -1.969560 -0.317190 1.138063
  C -1.889135 -3.240387 -2.519549
  C -1.047439 0.411884 0.522750
  C -1.193881 1.712857 -0.184209
  O 0.165293 -0.253072 0.406936
  H -4.009426 -0.865558 1.355121
  H -3.765036 0.576949 0.369560
  H -3.585018 0.659930 2.122616
  H -1.657711 -1.241818 1.601664
  H -2.270328 -2.506265 -3.194215
  H -2.565622 -3.877333 -1.994222
  H -0.838643 -3.410869 -2.449784
  H -2.187729 2.112078 -0.017746
  H -1.043118 1.585778 -1.255258
  H -0.472319 2.438609 0.184656
  O 1.352828 0.599640 0.201506
  H 1.877984 0.547110 1.058768
  H 1.840609 0.112922 -0.531755
