 19
 0.000000
  C 0.977509 0.053412 0.189147
  C 2.480590 0.054477 0.170248
  C 3.259119 -0.018466 1.463028
  C 2.452987 -0.091386 2.755256
  H 3.133146 -0.139203 3.602744
  C 3.105712 0.121248 -1.013064
  H 2.531760 0.172959 -1.929502
  C 4.535489 0.132875 -1.219078
  C 5.104705 0.200654 -2.420360
  H 6.173291 0.208395 -2.557526
  H 0.568727 -0.003157 1.191626
  H 0.594704 -0.798778 -0.371572
  H 0.594705 0.963271 -0.272142
  H 3.909393 0.860135 1.520469
  H 3.909406 -0.897960 1.421266
  H 1.823569 -0.978687 2.777224
  H 1.823563 0.787802 2.876901
  H 5.171666 0.083622 -0.346166
  H 4.533915 0.252226 -3.334337
 19
 7.259635
  C 0.860765 0.053411 0.189150
  C 2.523213 0.054404 0.171528
  C 3.291860 -0.018512 1.463821
  C 2.475422 -0.091045 2.749186
  H 3.148867 -0.139185 3.602382
  C 3.140093 0.120968 -1.008111
  H 2.559601 0.172465 -1.920757
  C 4.568496 0.132975 -1.220851
  C 5.129049 0.200847 -2.423790
  H 6.196671 0.208909 -2.566640
  H 0.455725 -0.003134 1.191209
  H 0.485113 -0.797584 -0.372582
  H 0.485114 0.962199 -0.273279
  H 3.941883 0.859991 1.524898
  H 3.941889 -0.898308 1.425684
  H 1.845756 -0.977926 2.765871
  H 1.845747 0.788324 2.865535
  H 5.208977 0.083900 -0.351101
  H 4.550819 0.252145 -3.332907
 19
 22.619204
  C 0.767410 0.052992 0.196568
  C 2.589258 0.053633 0.185201
  C 3.323256 -0.019422 1.479939
  C 2.469697 -0.090563 2.740637
  H 3.117188 -0.139878 3.614647
  C 3.179408 0.120320 -0.996624
  H 2.577955 0.171113 -1.896804
  C 4.606426 0.133750 -1.234624
  C 5.141056 0.202304 -2.449605
  H 6.205626 0.211506 -2.612619
  H 0.379624 -0.003695 1.201152
  H 0.417146 -0.797851 -0.368299
  H 0.417147 0.961982 -0.268994
  H 3.972141 0.859307 1.555061
  H 3.972142 -0.901017 1.455731
  H 1.838840 -0.975805 2.736964
  H 1.838833 0.789468 2.836574
  H 5.262304 0.085302 -0.375958
  H 4.539816 0.252747 -3.343599
 19
 39.548087
  C 0.662889 0.052854 0.199027
  C 2.644114 0.052939 0.197490
  C 3.352888 -0.020910 1.506309
  C 2.469581 -0.090952 2.747514
  H 3.094657 -0.141175 3.637594
  C 3.217174 0.120675 -1.002919
  H 2.601051 0.170867 -1.892438
  C 4.642678 0.135141 -1.259274
  C 5.158485 0.204038 -2.480345
  H 6.220822 0.214003 -2.656896
  H 0.290123 -0.004155 1.209285
  H 0.338194 -0.804814 -0.373040
  H 0.338194 0.969434 -0.272921
  H 4.001081 0.858439 1.594076
  H 4.001081 -0.904542 1.494595
  H 1.837921 -0.975337 2.726624
  H 1.837908 0.790169 2.826248
  H 5.308017 0.087104 -0.407904
  H 4.541525 0.253850 -3.363142
