 17
 0.000000
  C 1.009731 0.132956 0.380445
  C 2.480678 0.131479 0.378367
  C 3.207908 0.608171 1.565254
  H 2.523207 0.921956 2.345857
  C 3.143919 -0.325556 -0.758403
  C 4.532195 -0.380288 -0.894962
  C 5.141801 -0.840358 -2.041980
  H 4.570182 -1.183839 -2.895847
  O 6.423306 -0.916150 -2.234435
  H 0.597523 0.507268 1.312230
  H 0.630681 -0.874055 0.199625
  H 0.631683 0.736029 -0.446494
  H 3.859844 1.444262 1.309938
  H 3.859354 -0.172398 1.959493
  H 2.545583 -0.661248 -1.594662
  H 5.161123 -0.052637 -0.078591
  H 6.974028 -0.612058 -1.483426
 17
 0.764916
  C 1.019478 0.037415 0.393913
  C 2.487332 0.151841 0.384442
  C 3.187023 0.699604 1.558024
  H 2.496414 0.962549 2.351943
  C 3.172117 -0.243701 -0.760144
  C 4.562699 -0.336081 -0.882432
  C 5.144272 -0.747832 -2.063517
  H 4.547694 -0.840309 -2.964700
  O 6.379442 -1.098477 -2.234568
  H 0.582612 0.363101 1.333592
  H 0.719834 -0.994176 0.194312
  H 0.590149 0.624352 -0.422552
  H 3.757274 1.585951 1.279109
  H 3.909671 -0.017919 1.946476
  H 2.581673 -0.540542 -1.614385
  H 5.188230 -0.153845 -0.021564
  H 6.952318 -0.990344 -1.446792
 17
 2.308485
  C 1.035368 -0.067581 0.436378
  C 2.488418 0.156218 0.379266
  C 3.171551 0.804690 1.511065
  H 2.464581 1.267475 2.192320
  C 3.181299 -0.217647 -0.764918
  C 4.568078 -0.355567 -0.866232
  C 5.168914 -0.653364 -2.073250
  H 4.623102 -0.508755 -3.000123
  O 6.355446 -1.141004 -2.254319
  H 0.625716 0.144321 1.418644
  H 0.788467 -1.088036 0.143764
  H 0.534682 0.575507 -0.291178
  H 3.891143 1.545762 1.168879
  H 3.736465 0.058487 2.075457
  H 2.595403 -0.489093 -1.633305
  H 5.166961 -0.333852 0.034133
  H 6.886506 -1.247291 -1.438571
 17
 3.522409
  C 1.054812 -0.126838 0.471945
  C 2.502895 0.129293 0.387807
  C 3.154059 0.862584 1.484697
  H 2.483487 1.613374 1.893025
  C 3.199929 -0.261689 -0.744835
  C 4.586451 -0.391544 -0.855530
  C 5.187494 -0.571182 -2.087487
  H 4.650073 -0.287253 -2.990201
  O 6.346387 -1.091872 -2.330962
  H 0.676022 0.024274 1.477639
  H 0.807670 -1.128067 0.121797
  H 0.527115 0.562615 -0.188375
  H 4.091118 1.323812 1.183316
  H 3.363738 0.167560 2.301626
  H 2.613088 -0.556598 -1.606626
  H 5.180670 -0.468452 0.046545
  H 6.869230 -1.333022 -1.533847
 17
 10.586753
  C 1.058356 -0.167405 0.478012
  C 2.507045 0.100853 0.411327
  C 3.109138 0.958389 1.448385
  H 2.441182 1.777988 1.702475
  C 3.245897 -0.380062 -0.645863
  C 4.646960 -0.472556 -0.776301
  C 5.231713 -0.415167 -2.026488
  H 4.735404 0.176763 -2.793358
  O 6.269270 -1.039826 -2.483905
  H 0.661670 0.034934 1.467167
  H 0.826341 -1.187623 0.179520
  H 0.535424 0.489313 -0.222023
  H 4.080673 1.345492 1.157355
  H 3.231777 0.370745 2.363290
  H 2.677502 -0.761129 -1.488414
  H 5.227278 -0.791043 0.082081
  H 6.774237 -1.554863 -1.819973
 17
 20.467180
  C 1.059807 -0.170562 0.455029
  C 2.517797 0.076785 0.424197
  C 3.078458 1.035704 1.399184
  H 2.410578 1.879993 1.548723
  C 3.293189 -0.533087 -0.516427
  C 4.714091 -0.574602 -0.672668
  C 5.232799 -0.313108 -1.923677
  H 4.756157 0.481585 -2.497060
  O 6.167058 -0.881260 -2.617909
  H 0.633981 0.113859 1.413358
  H 0.824366 -1.209209 0.232992
  H 0.569059 0.438301 -0.307049
  H 4.063140 1.390019 1.109158
  H 3.172166 0.527298 2.361257
  H 2.752366 -1.069041 -1.292840
  H 5.290304 -1.111682 0.071661
  H 6.686298 -1.568977 -2.150779
 17
 31.728295
  C 1.063237 -0.186476 0.438636
  C 2.528062 0.046557 0.393961
  C 3.089126 1.073510 1.306982
  H 2.455272 1.954257 1.372931
  C 3.304887 -0.677425 -0.442184
  C 4.747409 -0.628214 -0.596445
  C 5.172199 -0.218838 -1.844674
  H 4.760713 0.713150 -2.230289
  O 6.062423 -0.680280 -2.662407
  H 0.639765 0.192016 1.363337
  H 0.817921 -1.237980 0.320758
  H 0.581014 0.353074 -0.377682
  H 4.098836 1.359605 1.021391
  H 3.148102 0.630088 2.300639
  H 2.821571 -1.457225 -1.022205
  H 5.340068 -1.276108 0.033738
  H 6.591644 -1.440864 -2.345092
 17
 52.085543
  C 1.110751 -0.224452 0.334555
  C 2.575693 0.010674 0.285858
  C 3.143746 1.029228 1.217731
  H 2.552673 1.915325 1.277903
  C 3.422322 -0.750764 -0.465054
  C 4.894837 -0.409764 -0.367881
  C 4.928254 -0.074186 -1.716652
  H 4.538459 0.859520 -2.137978
  O 5.653338 -0.695673 -2.590609
  H 0.677586 0.153351 1.284490
  H 0.856216 -1.276453 0.190951
  H 0.641256 0.329777 -0.454052
  H 4.169830 1.250260 0.903252
  H 3.234170 0.590063 2.229254
  H 3.061118 -1.658754 -0.861266
  H 5.543755 -1.145786 0.161843
  H 6.233789 -1.389640 -2.267085
 17
 64.108701
  C 1.210353 -0.323059 0.265535
  C 2.645044 -0.020777 0.240443
  C 3.172517 0.966684 1.193526
  H 2.597029 1.877741 1.263229
  C 3.562728 -0.638316 -0.583763
  C 5.026714 -0.125609 -0.176874
  C 4.708288 0.004253 -1.551046
  H 4.467193 0.957317 -2.017827
  O 5.301938 -0.780165 -2.478534
  H 0.764244 -0.046004 1.216433
  H 1.001723 -1.365792 0.052306
  H 0.727488 0.267349 -0.514451
  H 4.221230 1.179522 0.834374
  H 3.323507 0.519849 2.176751
  H 3.272349 -1.545796 -1.118240
  H 5.614280 -0.856684 0.344789
  H 5.667854 -1.604292 -2.118084
 17
 80.583927
  C 1.137764 -0.343411 0.273082
  C 2.592826 -0.057627 0.149343
  C 3.231164 0.829372 1.116429
  H 2.791356 1.812027 1.261086
  C 3.377126 -0.590075 -0.803382
  C 5.122690 0.181299 -0.085662
  C 4.683513 0.033345 -1.443462
  H 4.453728 0.929868 -2.020859
  O 5.305370 -0.849965 -2.279553
  H 0.780829 -0.139899 1.278430
  H 0.915253 -1.374273 0.012471
  H 0.591884 0.296949 -0.418672
  H 4.466091 0.935288 0.553714
  H 3.492231 0.354944 2.056252
  H 3.060812 -1.427309 -1.410688
  H 5.646217 -0.576945 0.474902
  H 5.737128 -1.576895 -1.802785
 17
 61.613227
  C 1.119275 -0.381328 0.262961
  C 2.561756 -0.115886 0.066669
  C 3.384684 0.761077 0.967538
  H 2.995773 1.757350 1.117687
  C 3.281311 -0.657327 -0.911323
  C 4.856120 0.201678 0.096666
  C 4.604232 0.038521 -1.350702
  H 4.389699 0.947788 -1.915298
  O 5.319485 -0.779051 -2.177261
  H 0.819061 -0.180527 1.288703
  H 0.861765 -1.404235 0.002907
  H 0.546365 0.284283 -0.382569
  H 4.996780 1.179997 0.442926
  H 3.652494 0.267363 1.897119
  H 2.999131 -1.446751 -1.591942
  H 5.359655 -0.548391 0.687098
  H 5.744804 -1.511947 -1.702711
 17
 16.405341
  C 1.083804 -0.381675 0.275675
  C 2.517640 -0.136688 0.030696
  C 3.451413 0.627735 0.862359
  H 3.120388 1.661838 1.063887
  C 3.208266 -0.667796 -1.032282
  C 4.822975 0.371566 0.174867
  C 4.539351 0.046211 -1.272612
  H 4.376403 0.932562 -1.835744
  O 5.338310 -0.784227 -2.055093
  H 0.818824 -0.190834 1.311129
  H 0.810055 -1.396724 -0.003274
  H 0.480106 0.285100 -0.348028
  H 5.416300 1.266229 0.272211
  H 3.635793 0.106908 1.810843
  H 2.900187 -1.454828 -1.704412
  H 5.323141 -0.392284 0.732785
  H 5.719805 -1.491995 -1.543242
 17
 2.957627
  C 1.065637 -0.340417 0.316147
  C 2.483551 -0.171903 0.000927
  C 3.451524 0.512255 0.886137
  H 3.131898 1.523039 1.147678
  C 3.107074 -0.619612 -1.137930
  C 4.810605 0.410353 0.190601
  C 4.492656 -0.089544 -1.220544
  H 4.322940 0.804724 -1.870665
  O 5.435592 -0.828439 -1.917878
  H 0.857249 -0.176008 1.369420
  H 0.704311 -1.318943 0.005135
  H 0.488555 0.387336 -0.260800
  H 5.355744 1.350291 0.191735
  H 3.499338 -0.020423 1.845056
  H 2.683517 -1.253129 -1.896170
  H 5.455835 -0.303800 0.703734
  H 5.947606 -1.401096 -1.328343
 17
 2.749931
  C 1.045189 -0.319544 0.329867
  C 2.467095 -0.176949 0.005781
  C 3.459730 0.399492 0.935266
  H 3.133780 1.363154 1.333117
  C 3.061658 -0.562088 -1.166311
  C 4.786197 0.448021 0.179114
  C 4.486447 -0.140236 -1.203633
  H 4.393914 0.709604 -1.930955
  O 5.419828 -0.968583 -1.800751
  H 0.848365 -0.161137 1.385432
  H 0.662363 -1.291022 0.019307
  H 0.479026 0.415288 -0.248008
  H 5.152679 1.472687 0.094250
  H 3.533623 -0.246336 1.818865
  H 2.574929 -1.009127 -2.014418
  H 5.570995 -0.112439 0.686223
  H 6.007420 -1.378753 -1.146402
 17
 4.620885
  C 1.045223 -0.275749 0.320636
  C 2.472233 -0.183343 0.005506
  C 3.492898 0.289423 0.963185
  H 3.161305 1.118843 1.587245
  C 3.055629 -0.530370 -1.185154
  C 4.753453 0.536282 0.135957
  C 4.496023 -0.143124 -1.214792
  H 4.472303 0.627128 -2.026957
  O 5.435622 -1.049806 -1.682418
  H 0.848241 -0.113502 1.375421
  H 0.627491 -1.232231 0.006701
  H 0.511009 0.478292 -0.262119
  H 4.879501 1.608243 -0.026191
  H 3.676516 -0.536915 1.665454
  H 2.541040 -0.906528 -2.050914
  H 5.661936 0.187608 0.623008
  H 5.952814 -1.432217 -0.957822
