 23
 0.000000
  C 0.941361 0.054086 0.181423
  C 2.442916 0.055994 0.096066
  C 3.260851 -0.010426 1.373357
  C 2.492538 -0.083929 2.688943
  H 3.195065 -0.130419 3.517402
  C 3.050768 0.118842 -1.101932
  C 2.346099 0.204181 -2.425790
  H 1.263493 0.190004 -2.374514
  C 4.504378 0.128982 -1.211399
  C 5.216117 0.193808 -2.338430
  O 6.574410 0.200618 -2.390616
  H 0.583195 0.001835 1.203049
  H 0.529703 -0.804155 -0.349137
  H 0.532641 0.963891 -0.257567
  H 3.913306 0.872354 1.421474
  H 3.908372 -0.891610 1.321107
  H 1.864722 -0.971883 2.727241
  H 1.864929 0.794343 2.826319
  H 2.663641 -0.629653 -3.052278
  H 2.646332 1.123580 -2.929182
  H 5.068093 0.079406 -0.289357
  H 4.806717 0.248294 -3.333786
  H 6.932543 0.151699 -1.494776
 23
 -0.430383
  C 0.955135 -0.104617 0.161402
  C 2.458686 -0.037534 0.088773
  C 3.247744 -0.124656 1.379875
  C 2.473349 0.102498 2.674740
  H 3.172221 0.111146 3.509578
  C 3.091083 0.102023 -1.097952
  C 2.350899 0.261897 -2.397550
  H 1.276758 0.237326 -2.264286
  C 4.539839 0.090463 -1.212365
  C 5.231986 0.296138 -2.332123
  O 6.588435 0.256950 -2.422518
  H 0.610852 -0.314606 1.165549
  H 0.575012 -0.890669 -0.490861
  H 0.509158 0.840095 -0.152388
  H 4.039939 0.627796 1.340517
  H 3.730248 -1.107080 1.437154
  H 1.752013 -0.688093 2.861789
  H 1.956688 1.058298 2.655817
  H 2.630478 -0.531528 -3.088117
  H 2.613366 1.214564 -2.853752
  H 5.106590 -0.131704 -0.318825
  H 4.795400 0.520102 -3.292175
  H 6.966406 0.054775 -1.554132
 23
 -0.088408
  C 0.963263 -0.308124 0.152186
  C 2.458282 -0.155998 0.090836
  C 3.232816 -0.235180 1.390003
  C 2.495867 0.298981 2.617250
  H 3.169953 0.292831 3.471799
  C 3.089030 0.092949 -1.072451
  C 2.345061 0.352269 -2.356411
  H 1.271509 0.364367 -2.208788
  C 4.537486 0.054559 -1.204455
  C 5.229892 0.390883 -2.294359
  O 6.579549 0.296973 -2.412731
  H 0.641485 -0.632456 1.135077
  H 0.628040 -1.050990 -0.570788
  H 0.458688 0.632235 -0.070819
  H 4.122680 0.381161 1.259456
  H 3.541412 -1.267401 1.584135
  H 1.632714 -0.307923 2.876712
  H 2.166283 1.321370 2.448356
  H 2.584011 -0.409609 -3.097271
  H 2.641029 1.319682 -2.758319
  H 5.102766 -0.327519 -0.363702
  H 4.797093 0.775791 -3.203106
  H 6.953794 -0.050237 -1.592759
 23
 -0.090291
  C 0.965267 -0.495240 0.153644
  C 2.449830 -0.265300 0.094632
  C 3.199610 -0.355643 1.401168
  C 2.553881 0.491433 2.500521
  H 3.174571 0.467345 3.393933
  C 3.077791 0.072376 -1.045660
  C 2.333076 0.429367 -2.305751
  H 1.261943 0.471440 -2.141080
  C 4.525943 0.019162 -1.194786
  C 5.224045 0.499896 -2.224115
  O 6.567024 0.368615 -2.377335
  H 0.686651 -0.935321 1.106647
  H 0.656919 -1.178873 -0.636130
  H 0.405084 0.432651 0.035301
  H 4.190750 0.059915 1.224716
  H 3.277680 -1.391424 1.741733
  H 1.565895 0.128085 2.769624
  H 2.463041 1.524109 2.171779
  H 2.536126 -0.293889 -3.094553
  H 2.658457 1.408108 -2.652156
  H 5.081216 -0.516687 -0.434470
  H 4.801568 1.047499 -3.050547
  H 6.932526 -0.123353 -1.630733
 23
 4.499464
  C 1.005857 -0.748514 0.120295
  C 2.445022 -0.325264 0.109882
  C 3.197241 -0.367763 1.417284
  C 2.563991 0.633939 2.392551
  H 3.155329 0.689098 3.304188
  C 3.072307 0.161980 -0.977280
  C 2.327553 0.659439 -2.189363
  H 1.274675 0.806755 -1.968125
  C 4.501536 -0.025673 -1.181865
  C 5.228792 0.489271 -2.174323
  O 6.536953 0.203742 -2.404230
  H 0.766278 -1.231206 1.064038
  H 0.824767 -1.453723 -0.689365
  H 0.318579 0.088829 -0.010338
  H 4.178038 0.042826 1.172558
  H 3.221704 -1.356101 1.874009
  H 1.551736 0.341500 2.662270
  H 2.526672 1.622065 1.940798
  H 2.412677 -0.034449 -3.025079
  H 2.745261 1.614631 -2.498697
  H 5.005049 -0.699716 -0.498362
  H 4.854616 1.175119 -2.916669
  H 6.858118 -0.408798 -1.729991
 23
 15.362242
  C 1.071840 -0.938856 0.041397
  C 2.448566 -0.361551 0.127807
  C 3.181121 -0.345399 1.450265
  C 2.536760 0.729405 2.342795
  H 3.129911 0.857541 3.245843
  C 3.102657 0.241301 -0.898568
  C 2.357442 0.888853 -2.039542
  H 1.343854 1.124575 -1.738334
  C 4.486866 -0.072399 -1.175482
  C 5.205669 0.378916 -2.205464
  O 6.475093 -0.017652 -2.493714
  H 0.857759 -1.514916 0.937540
  H 1.003148 -1.586939 -0.829248
  H 0.295305 -0.178902 -0.055433
  H 4.104382 0.140803 1.129955
  H 3.199008 -1.294619 1.976661
  H 1.526870 0.448142 2.639349
  H 2.486715 1.678392 1.814586
  H 2.309661 0.249228 -2.920474
  H 2.856983 1.818301 -2.313593
  H 4.958425 -0.784930 -0.508055
  H 4.849588 1.084319 -2.940787
  H 6.776614 -0.643629 -1.824592
 23
 32.100754
  C 1.082762 -1.068307 -0.044026
  C 2.378379 -0.349069 0.133063
  C 3.129045 -0.322562 1.436047
  C 2.609034 0.816626 2.337923
  H 3.336334 1.017781 3.118688
  C 3.081591 0.302200 -0.841507
  C 2.377511 1.033563 -1.967895
  H 1.345183 1.240769 -1.702824
  C 4.416277 -0.156698 -1.178171
  C 5.201316 0.341543 -2.140012
  O 6.410185 -0.155369 -2.472167
  H 0.859861 -1.648454 0.845503
  H 1.153877 -1.731574 -0.902346
  H 0.242192 -0.398338 -0.225033
  H 4.001538 0.219329 1.019195
  H 3.179861 -1.236760 2.004951
  H 1.665254 0.547862 2.819801
  H 2.442130 1.716349 1.757856
  H 2.391939 0.472976 -2.901142
  H 2.886275 1.979041 -2.143992
  H 4.802093 -0.978832 -0.583088
  H 4.947115 1.179422 -2.766702
  H 6.620423 -0.894152 -1.893369
 23
 61.671591
  C 1.110577 -1.254515 -0.163451
  C 2.335259 -0.462672 0.130840
  C 3.008695 -0.317808 1.440733
  C 2.687439 0.930693 2.296161
  H 3.465257 1.074355 3.040715
  C 3.082357 0.286581 -0.759123
  C 2.425977 1.170039 -1.798152
  H 1.424457 1.446737 -1.476095
  C 4.405653 -0.182316 -1.128534
  C 5.145087 0.273945 -2.143229
  O 6.344065 -0.253561 -2.520963
  H 0.839468 -1.854470 0.702170
  H 1.274350 -1.906626 -1.020124
  H 0.261502 -0.607917 -0.402373
  H 3.805334 0.343055 0.808578
  H 3.013837 -1.201038 2.075574
  H 1.740834 0.795955 2.828298
  H 2.603011 1.828134 1.688473
  H 2.354043 0.676957 -2.768724
  H 3.009124 2.078417 -1.923811
  H 4.782727 -1.024058 -0.556476
  H 4.861447 1.084831 -2.792554
  H 6.581246 -0.969737 -1.919882
 23
 77.881416
  C 1.151942 -1.317678 -0.185246
  C 2.331005 -0.484614 0.178259
  C 2.905039 -0.304228 1.457617
  C 2.667086 0.960655 2.280185
  H 3.479863 1.122996 2.985616
  C 3.124523 0.332562 -0.701424
  C 2.438010 1.220494 -1.719247
  H 1.437397 1.477979 -1.378829
  C 4.424897 -0.213737 -1.141712
  C 5.154271 0.238381 -2.157771
  O 6.333184 -0.314448 -2.573656
  H 0.842192 -1.922844 0.664478
  H 1.367613 -1.970132 -1.032508
  H 0.315202 -0.677087 -0.471006
  H 3.777515 0.516948 0.594110
  H 2.917924 -1.167954 2.136465
  H 1.747125 0.837370 2.856910
  H 2.560722 1.847551 1.658569
  H 2.362625 0.721291 -2.685124
  H 2.999012 2.142030 -1.858514
  H 4.785657 -1.071069 -0.582758
  H 4.890702 1.083748 -2.771292
  H 6.548138 -1.067629 -2.010346
 23
 60.229565
  C 1.254132 -1.392138 -0.188618
  C 2.363903 -0.514375 0.249282
  C 2.834674 -0.312578 1.507505
  C 2.593878 0.968680 2.271945
  H 3.368610 1.158658 3.015762
  C 3.181216 0.382672 -0.637149
  C 2.466788 1.291611 -1.606376
  H 1.490597 1.567915 -1.213510
  C 4.440943 -0.248623 -1.167201
  C 5.154860 0.196210 -2.197864
  O 6.288946 -0.398963 -2.679110
  H 0.894590 -1.996114 0.640647
  H 1.533496 -2.045860 -1.013629
  H 0.440223 -0.758128 -0.533047
  H 3.761400 0.707360 0.343784
  H 2.783322 -1.127791 2.243178
  H 1.648936 0.849812 2.799081
  H 2.516552 1.838783 1.621456
  H 2.330239 0.784319 -2.560391
  H 3.035167 2.203881 -1.781519
  H 4.772610 -1.136994 -0.638035
  H 4.899149 1.062594 -2.786171
  H 6.488170 -1.186007 -2.149000
 23
 39.515601
  C 1.350756 -1.394531 -0.283464
  C 2.386025 -0.477823 0.267114
  C 2.698654 -0.308335 1.566819
  C 2.624760 0.977070 2.345369
  H 3.421909 1.059668 3.087201
  C 3.204201 0.461330 -0.607586
  C 2.434563 1.303529 -1.601267
  H 1.465792 1.577535 -1.189317
  C 4.450953 -0.205714 -1.141026
  C 5.086556 0.128064 -2.252912
  O 6.219056 -0.474233 -2.720424
  H 0.965755 -2.052698 0.493145
  H 1.718732 -2.002526 -1.112352
  H 0.534742 -0.779500 -0.659427
  H 3.720411 0.871699 0.306385
  H 2.603836 -1.146391 2.266234
  H 1.675780 0.963986 2.878488
  H 2.658171 1.861056 1.710856
  H 2.283612 0.745658 -2.521889
  H 2.971424 2.220093 -1.838385
  H 4.822866 -1.030063 -0.542229
  H 4.780418 0.926315 -2.909191
  H 6.481233 -1.178476 -2.112792
 23
 21.419763
  C 1.543682 -1.456278 -0.337880
  C 2.422443 -0.436578 0.302788
  C 2.602325 -0.288057 1.617299
  C 2.583745 1.007479 2.380505
  H 3.337715 1.037617 3.168060
  C 3.221040 0.515346 -0.565995
  C 2.444232 1.371207 -1.549520
  H 1.493286 1.670978 -1.113993
  C 4.401165 -0.220433 -1.157163
  C 4.994606 0.066986 -2.299705
  O 6.081363 -0.579833 -2.804484
  H 1.144593 -2.147869 0.400825
  H 2.052618 -2.022112 -1.119079
  H 0.714636 -0.922167 -0.801533
  H 3.750069 1.064415 0.243714
  H 2.391002 -1.101600 2.312976
  H 1.605025 1.070982 2.854920
  H 2.715324 1.881679 1.747311
  H 2.250429 0.812020 -2.461835
  H 2.999622 2.269687 -1.805954
  H 4.772059 -1.042952 -0.556210
  H 4.687841 0.865880 -2.954900
  H 6.342512 -1.285820 -2.201688
 23
 9.816867
  C 1.658306 -1.451838 -0.387268
  C 2.432242 -0.380040 0.312155
  C 2.470311 -0.249428 1.633953
  C 2.624027 1.009148 2.436196
  H 3.359085 0.892732 3.233741
  C 3.219788 0.586030 -0.551417
  C 2.396452 1.335841 -1.589856
  H 1.435101 1.620137 -1.166795
  C 4.397558 -0.165464 -1.123636
  C 4.940147 0.029788 -2.315517
  O 6.022598 -0.635811 -2.805047
  H 1.246540 -2.164479 0.323392
  H 2.265030 -1.986267 -1.118742
  H 0.835237 -0.979118 -0.920969
  H 3.683704 1.260433 0.186243
  H 2.138731 -1.055140 2.284609
  H 1.660296 1.209091 2.904259
  H 2.896391 1.875728 1.840507
  H 2.221553 0.710250 -2.461364
  H 2.908690 2.240222 -1.908497
  H 4.818635 -0.916427 -0.464165
  H 4.585212 0.756638 -3.028606
  H 6.330467 -1.274546 -2.149908
 23
 3.871418
  C 1.737736 -1.444804 -0.418561
  C 2.407859 -0.319879 0.311672
  C 2.325437 -0.196118 1.629912
  C 2.676558 0.976526 2.491904
  H 3.357210 0.678619 3.289999
  C 3.208959 0.636862 -0.546833
  C 2.364287 1.321943 -1.617817
  H 1.417385 1.644325 -1.189447
  C 4.389688 -0.121167 -1.098288
  C 4.888998 -0.012978 -2.319184
  O 5.975045 -0.687703 -2.786243
  H 1.356789 -2.190610 0.274871
  H 2.421140 -1.923894 -1.118534
  H 0.899257 -1.049241 -0.990572
  H 3.630455 1.383715 0.137121
  H 1.885349 -0.996686 2.216104
  H 1.762258 1.341415 2.960835
  H 3.126469 1.798807 1.943968
  H 2.160090 0.641514 -2.440012
  H 2.877125 2.197271 -2.008661
  H 4.866778 -0.787968 -0.387978
  H 4.483087 0.630345 -3.083378
  H 6.328143 -1.252816 -2.087611
 23
 1.979141
  C 1.841862 -1.464394 -0.424722
  C 2.417345 -0.291389 0.316924
  C 2.200343 -0.137657 1.616902
  C 2.645268 0.964703 2.525430
  H 3.246968 0.554835 3.338098
  C 3.239622 0.655695 -0.529144
  C 2.369771 1.342599 -1.583326
  H 1.484134 1.759925 -1.109612
  C 4.408246 -0.097926 -1.105686
  C 4.830211 -0.057732 -2.359391
  O 5.903947 -0.737392 -2.848813
  H 1.473597 -2.220079 0.264243
  H 2.591245 -1.910632 -1.075262
  H 1.010442 -1.140492 -1.049519
  H 3.655168 1.426583 0.129736
  H 1.638552 -0.904193 2.137073
  H 1.771236 1.440250 2.973052
  H 3.226355 1.729480 2.018011
  H 2.056343 0.636343 -2.346508
  H 2.916428 2.152029 -2.060673
  H 4.942769 -0.710577 -0.387763
  H 4.361724 0.524343 -3.137228
  H 6.314528 -1.246843 -2.138555
