12

H -2.469204757884767 0.7003897921385764 -0.05545935501169515
C -2.055621 0.586417 -0.023627
C -1.648243 -0.478805 0.646011
C -0.238006 -0.948953 0.808527
C 0.806926 -0.08072 0.111774
H 1.2297065827750087 -0.2399052593892423 0.17996449379507554
H -1.347491 1.22765 -0.525489
H -2.391627 -1.098285 1.1318
H -0.002208 -0.998503 1.875099
H -0.173962 -1.97178 0.418226
H 0.599577 -0.059712 -0.960189
H 0.745085 0.938834 0.494409
