 20
 0.000000
  H 1.506019 0.145556 0.413359
  C 2.587574 0.134001 0.386136
  C 3.277252 0.618376 1.589985
  C 2.333993 1.063424 2.695413
  H 2.896880 1.410701 3.559627
  C 3.188408 -0.329032 -0.764649
  C 4.571963 -0.406221 -0.954926
  C 5.208885 -0.867443 -2.108793
  C 4.524801 -1.352920 -3.321876
  H 3.447100 -1.323444 -3.247833
  O 6.511431 -0.897306 -2.186004
  H 3.940045 1.445900 1.321302
  H 3.939689 -0.164772 1.969488
  H 1.695276 0.242060 3.014962
  H 1.696002 1.877892 2.357048
  H 2.536072 -0.648965 -1.563344
  H 5.207095 -0.081926 -0.142165
  H 4.851493 -2.371005 -3.530630
  H 4.851347 -0.759889 -4.175219
  H 6.990999 -0.577261 -1.391691
 20
 9.245962
  H 1.453232 0.157843 0.443695
  C 2.533960 0.139749 0.400331
  C 3.245443 0.620101 1.594306
  C 2.321141 1.071506 2.715378
  H 2.898378 1.414743 3.569688
  C 3.104603 -0.321540 -0.746036
  C 4.643737 -0.412540 -0.970363
  C 5.252728 -0.874049 -2.125161
  C 4.543531 -1.354985 -3.326950
  H 3.467273 -1.317204 -3.232039
  O 6.556465 -0.912311 -2.223628
  H 3.910640 1.444964 1.314342
  H 3.910217 -0.169062 1.963820
  H 1.682580 0.254977 3.044679
  H 1.683513 1.889289 2.387380
  H 2.452405 -0.639609 -1.540043
  H 5.279774 -0.089987 -0.161765
  H 4.858980 -2.376330 -3.541718
  H 4.858791 -0.763568 -4.186935
  H 7.048235 -0.596816 -1.441095
 20
 27.995266
  H 1.411655 0.170270 0.473564
  C 2.491012 0.143609 0.409696
  C 3.222437 0.617991 1.589508
  C 2.316286 1.074908 2.723407
  H 2.905743 1.414216 3.568682
  C 3.018448 -0.318281 -0.737717
  C 4.717680 -0.412224 -0.968516
  C 5.291115 -0.876941 -2.132287
  C 4.554004 -1.351884 -3.318808
  H 3.481498 -1.302725 -3.194301
  O 6.586513 -0.925515 -2.257854
  H 3.888037 1.441706 1.300300
  H 3.886976 -0.177346 1.951676
  H 1.677121 0.263289 3.061071
  H 1.678896 1.895504 2.404671
  H 2.409010 -0.645303 -1.554120
  H 5.313787 -0.081481 -0.139021
  H 4.854829 -2.376872 -3.540844
  H 4.853936 -0.762049 -4.186458
  H 7.088763 -0.616618 -1.492942
 20
 48.985160
  H 1.358840 0.180557 0.499550
  C 2.443073 0.145379 0.414404
  C 3.203097 0.620049 1.594627
  C 2.317075 1.079997 2.735927
  H 2.919669 1.417919 3.577011
  C 2.929108 -0.319122 -0.739263
  C 4.787522 -0.417967 -0.981617
  C 5.324020 -0.879943 -2.139595
  C 4.562259 -1.347625 -3.308708
  H 3.495221 -1.289036 -3.159986
  O 6.619527 -0.938297 -2.290225
  H 3.863424 1.435884 1.294154
  H 3.862160 -0.177260 1.943173
  H 1.674922 0.270307 3.079977
  H 1.677064 1.903925 2.422846
  H 2.363649 -0.656041 -1.580134
  H 5.343923 -0.079610 -0.132411
  H 4.850477 -2.373198 -3.536574
  H 4.849211 -0.760833 -4.180304
  H 7.140949 -0.629805 -1.526497
 20
 69.482692
  H 1.301080 0.199469 0.548682
  C 2.385353 0.154813 0.438389
  C 3.170510 0.624461 1.604119
  C 2.309654 1.088823 2.756909
  H 2.931709 1.422961 3.588095
  C 2.828879 -0.310399 -0.716642
  C 4.843578 -0.422200 -0.989043
  C 5.366528 -0.888816 -2.160749
  C 4.584900 -1.353352 -3.324138
  H 3.523220 -1.289636 -3.162631
  O 6.670775 -0.954776 -2.331476
  H 3.827994 1.433471 1.291080
  H 3.827489 -0.175841 1.939009
  H 1.669047 0.282374 3.113745
  H 1.670191 1.918504 2.455427
  H 2.298658 -0.654003 -1.573892
  H 5.375197 -0.080059 -0.127301
  H 4.865149 -2.379211 -3.556745
  H 4.864255 -0.768539 -4.198302
  H 7.204166 -0.648725 -1.574218
 20
 88.344859
  H 1.247613 0.215578 0.589283
  C 2.327572 0.164267 0.461397
  C 3.133876 0.629856 1.616460
  C 2.287366 1.102033 2.789838
  H 2.920636 1.431285 3.608503
  C 2.744258 -0.301625 -0.695780
  C 4.913549 -0.430494 -1.008140
  C 5.417480 -0.901092 -2.190576
  C 4.612392 -1.357822 -3.334976
  H 3.548093 -1.284515 -3.149098
  O 6.715915 -0.976061 -2.385002
  H 3.794946 1.440298 1.290188
  H 3.795171 -0.180449 1.942573
  H 1.648471 0.301060 3.156562
  H 1.649004 1.934213 2.499628
  H 2.216002 -0.646206 -1.556017
  H 5.450351 -0.088675 -0.145659
  H 4.880565 -2.388129 -3.573792
  H 4.879790 -0.773356 -4.216750
  H 7.264674 -0.674000 -1.637702
 20
 101.654121
  H 1.225651 0.204652 0.634235
  C 2.306382 0.162628 0.450605
  C 3.130948 0.644860 1.595614
  C 2.302810 1.093976 2.786585
  H 2.953348 1.433442 3.589191
  C 2.623155 -0.291533 -0.697432
  C 4.952423 -0.438467 -1.010497
  C 5.425857 -0.899983 -2.163751
  C 4.609143 -1.346681 -3.318807
  H 3.552848 -1.259874 -3.130586
  O 6.744617 -0.985343 -2.374444
  H 3.754818 1.471493 1.253588
  H 3.801792 -0.158330 1.902106
  H 1.693438 0.277650 3.169021
  H 1.644740 1.916983 2.516373
  H 2.197699 -0.652773 -1.598502
  H 5.407153 -0.094851 -0.109559
  H 4.861679 -2.377892 -3.559079
  H 4.882692 -0.759616 -4.193283
  H 7.298444 -0.702564 -1.627939
 20
 107.781358
  H 1.187036 0.231507 0.666169
  C 2.264345 0.161281 0.459818
  C 3.110202 0.632884 1.603394
  C 2.302631 1.108673 2.807270
  H 2.971948 1.433896 3.596890
  C 2.520698 -0.299150 -0.688938
  C 5.008532 -0.441501 -1.022662
  C 5.447302 -0.895182 -2.169650
  C 4.628788 -1.350495 -3.328808
  H 3.568224 -1.266928 -3.137707
  O 6.771771 -0.987856 -2.397523
  H 3.748299 1.446943 1.245560
  H 3.765143 -0.190433 1.905877
  H 1.680863 0.310528 3.203371
  H 1.663678 1.947443 2.544770
  H 2.149374 -0.666095 -1.609186
  H 5.394096 -0.082062 -0.101136
  H 4.884857 -2.382920 -3.558139
  H 4.897736 -0.757265 -4.200829
  H 7.329085 -0.693446 -1.651843
 20
 112.510010
  H 1.137248 0.255676 0.712983
  C 2.210474 0.170305 0.486838
  C 3.075901 0.631240 1.613814
  C 2.290095 1.117525 2.822773
  H 2.974464 1.435949 3.603592
  C 2.433155 -0.295218 -0.668732
  C 5.077157 -0.444848 -1.035421
  C 5.491428 -0.899834 -2.188055
  C 4.649175 -1.349170 -3.327546
  H 3.593751 -1.257732 -3.113811
  O 6.817636 -1.005072 -2.444060
  H 3.716309 1.436173 1.244385
  H 3.722017 -0.199756 1.907731
  H 1.663812 0.326890 3.228886
  H 1.658463 1.964492 2.566586
  H 2.083883 -0.664970 -1.594326
  H 5.440056 -0.079539 -0.108479
  H 4.893996 -2.384380 -3.558418
  H 4.904274 -0.757088 -4.204569
  H 7.386245 -0.713645 -1.715486
 20
 115.926000
  H 1.084589 0.279087 0.754508
  C 2.154067 0.178130 0.508646
  C 3.043166 0.629574 1.624370
  C 2.279634 1.128450 2.844395
  H 2.979754 1.438438 3.614824
  C 2.341977 -0.289458 -0.647452
  C 5.142214 -0.447334 -1.045921
  C 5.535963 -0.903974 -2.204848
  C 4.670761 -1.351790 -3.332647
  H 3.619771 -1.255202 -3.099715
  O 6.854372 -1.018247 -2.484969
  H 3.687435 1.425632 1.242839
  H 3.681033 -0.210893 1.909301
  H 1.649237 0.347088 3.261173
  H 1.656559 1.983984 2.596459
  H 2.014186 -0.663039 -1.581915
  H 5.481990 -0.076355 -0.112689
  H 4.906891 -2.388256 -3.564779
  H 4.912735 -0.760543 -4.213478
  H 7.437269 -0.725137 -1.764514
 20
 118.400967
  H 1.032137 0.300603 0.799879
  C 2.095458 0.186581 0.532321
  C 3.007732 0.628980 1.631900
  C 2.270227 1.137010 2.861824
  H 2.986939 1.439721 3.619682
  C 2.249432 -0.283846 -0.627316
  C 5.206110 -0.449222 -1.056216
  C 5.579756 -0.907486 -2.218704
  C 4.690824 -1.349423 -3.327850
  H 3.646092 -1.244442 -3.072532
  O 6.895539 -1.034141 -2.527532
  H 3.652538 1.417305 1.236937
  H 3.639138 -0.219151 1.905881
  H 1.638698 0.363070 3.290552
  H 1.653438 1.999574 2.623411
  H 1.946156 -0.659768 -1.565026
  H 5.522663 -0.074035 -0.118722
  H 4.914878 -2.388032 -3.561788
  H 4.919250 -0.759536 -4.212912
  H 7.492037 -0.744492 -1.820851
 20
 120.064369
  H 0.978837 0.320395 0.845311
  C 2.035849 0.194869 0.554997
  C 2.972755 0.629674 1.638886
  C 2.261870 1.146070 2.881790
  H 2.995927 1.442161 3.626108
  C 2.155869 -0.276597 -0.604953
  C 5.268982 -0.450424 -1.063837
  C 5.623920 -0.910849 -2.230534
  C 4.710237 -1.347876 -3.325224
  H 3.671001 -1.234589 -3.048987
  O 6.931429 -1.048690 -2.565775
  H 3.616549 1.411566 1.229665
  H 3.599485 -0.225843 1.900911
  H 1.631139 0.378666 3.323386
  H 1.649878 2.015170 2.654217
  H 1.875659 -0.657087 -1.551203
  H 5.562932 -0.071216 -0.120337
  H 4.922326 -2.388555 -3.561218
  H 4.926138 -0.759070 -4.214202
  H 7.542953 -0.761936 -1.868690
 20
 121.159470
  H 0.924972 0.339025 0.893891
  C 1.974183 0.203845 0.579841
  C 2.935742 0.631837 1.645538
  C 2.253408 1.154301 2.900577
  H 3.004582 1.444590 3.629626
  C 2.061440 -0.269263 -0.582359
  C 5.330948 -0.451644 -1.071349
  C 5.667607 -0.914122 -2.240908
  C 4.729088 -1.343628 -3.317694
  H 3.697352 -1.220471 -3.019578
  O 6.969354 -1.064684 -2.604432
  H 3.576184 1.408221 1.221510
  H 3.559035 -0.229624 1.894512
  H 1.625831 0.392373 3.355481
  H 1.644896 2.028436 2.684704
  H 1.805085 -0.651985 -1.530668
  H 5.603096 -0.069979 -0.124315
  H 4.927268 -2.386277 -3.555894
  H 4.932384 -0.756285 -4.210227
  H 7.594754 -0.783902 -1.920049
 20
 121.826420
  H 0.869466 0.358291 0.944753
  C 1.910435 0.213870 0.607540
  C 2.897052 0.635124 1.654572
  C 2.244032 1.164020 2.922784
  H 3.012775 1.448532 3.636199
  C 1.967574 -0.260087 -0.554906
  C 5.392617 -0.453105 -1.078793
  C 5.712063 -0.917594 -2.251551
  C 4.748391 -1.340210 -3.312419
  H 3.723222 -1.207646 -2.993312
  O 7.004625 -1.079541 -2.640802
  H 3.534051 1.405928 1.215576
  H 3.517230 -0.232265 1.890378
  H 1.619857 0.407452 3.391457
  H 1.638754 2.043573 2.718789
  H 1.727418 -0.646729 -1.509790
  H 5.648781 -0.069079 -0.127557
  H 4.933149 -2.384928 -3.552997
  H 4.939506 -0.753923 -4.208555
  H 7.644426 -0.804029 -1.966734
