 26
 0.000000
  C 0.921838 0.047642 0.291376
  C 2.409468 0.060260 0.067727
  C 3.226792 -0.011399 1.337788
  H 2.626160 -0.062155 2.237232
  C 3.002683 0.128429 -1.140359
  C 2.357443 0.205722 -2.510153
  C 0.844236 0.217130 -2.712273
  C 0.517226 0.301135 -4.201038
  C 4.461099 0.133250 -1.225723
  C 5.205222 0.195727 -2.333066
  O 6.564977 0.196286 -2.342923
  H 0.681482 -0.012130 1.350609
  H 0.459208 -0.814987 -0.181071
  H 0.459208 0.957942 -0.081028
  H 3.868461 0.867523 1.420422
  H 3.868469 -0.894039 1.321024
  H 2.745442 -0.642404 -3.084930
  H 2.745444 1.113132 -2.985875
  H 0.395699 1.076773 -2.216272
  H 0.395702 -0.692850 -2.316128
  H 0.927398 1.209602 -4.637426
  H -0.560529 0.309502 -4.349293
  H 0.927396 -0.552473 -4.736854
  H 5.004863 0.080592 -0.292478
  H 4.830123 0.252629 -3.341469
  H 6.894050 0.145120 -1.436083
 26
 10.718622
  C 0.810323 0.047564 0.292752
  C 2.423987 0.062128 0.034615
  C 3.310027 -0.015782 1.415468
  H 2.698428 -0.066124 2.307571
  C 3.009876 0.129668 -1.162308
  C 2.363734 0.206847 -2.530088
  C 0.850592 0.217951 -2.726828
  C 0.519386 0.301914 -4.214829
  C 4.467679 0.134358 -1.245364
  C 5.212758 0.196670 -2.349772
  O 6.571452 0.197066 -2.356749
  H 0.588066 -0.012369 1.354827
  H 0.348026 -0.814117 -0.176001
  H 0.348026 0.956508 -0.076088
  H 3.947496 0.862511 1.498434
  H 3.947502 -0.897832 1.399104
  H 2.751127 -0.641269 -3.105136
  H 2.751129 1.114276 -3.006079
  H 0.404012 1.077326 -2.228771
  H 0.404013 -0.691996 -2.328609
  H 0.928595 1.210402 -4.652161
  H -0.558669 0.310138 -4.360551
  H 0.928594 -0.551610 -4.751586
  H 5.009026 0.081624 -0.310775
  H 4.839349 0.253609 -3.358848
  H 6.899065 0.145867 -1.449320
 26
 34.187756
  C 0.705684 0.046640 0.309126
  C 2.437862 0.065019 -0.016620
  C 3.381515 -0.019638 1.483777
  H 2.736015 -0.068449 2.348741
  C 3.015237 0.131495 -1.194671
  C 2.369936 0.208549 -2.560227
  C 0.857372 0.218801 -2.741873
  C 0.512679 0.302610 -4.227159
  C 4.475974 0.135442 -1.264560
  C 5.232401 0.197325 -2.361380
  O 6.589471 0.196914 -2.354060
  H 0.539466 -0.013647 1.377474
  H 0.249935 -0.815156 -0.151418
  H 0.249935 0.954776 -0.051543
  H 4.005434 0.859804 1.562743
  H 4.005436 -0.902374 1.463308
  H 2.756234 -0.639834 -3.135459
  H 2.756236 1.116262 -3.036369
  H 0.416924 1.077414 -2.237426
  H 0.416925 -0.691106 -2.337221
  H 0.918308 1.211202 -4.667769
  H -0.566332 0.310344 -4.364191
  H 0.918308 -0.550653 -4.767190
  H 5.004664 0.082285 -0.322481
  H 4.868773 0.254495 -3.374564
  H 6.908775 0.145538 -1.443474
 26
 61.834195
  C 0.591411 0.044917 0.339670
  C 2.442142 0.066566 -0.044015
  C 3.435612 -0.025152 1.581511
  H 2.755071 -0.072367 2.418200
  C 3.033550 0.133956 -1.238266
  C 2.386960 0.210991 -2.603507
  C 0.871777 0.219887 -2.761124
  C 0.501987 0.303339 -4.240067
  C 4.497442 0.137319 -1.297819
  C 5.259329 0.198821 -2.387880
  O 6.617012 0.197957 -2.372549
  H 0.471296 -0.015658 1.413112
  H 0.145285 -0.823342 -0.121470
  H 0.145286 0.959542 -0.020863
  H 4.050288 0.862300 1.654935
  H 4.050297 -0.915231 1.554635
  H 2.770285 -0.637866 -3.180392
  H 2.770287 1.119360 -3.081238
  H 0.440636 1.077864 -2.246768
  H 0.440632 -0.690510 -2.346548
  H 0.899843 1.212172 -4.687112
  H -0.579076 0.310086 -4.359624
  H 0.899841 -0.549436 -4.786515
  H 5.015226 0.083841 -0.350010
  H 4.900775 0.256102 -3.403079
  H 6.931856 0.146504 -1.460576
 26
 87.427147
  C 0.501306 0.042322 0.385561
  C 2.432037 0.071203 -0.126234
  C 3.443713 -0.029899 1.665665
  H 2.662070 -0.071267 2.398699
  C 3.049824 0.137118 -1.294332
  C 2.417040 0.214807 -2.671092
  C 0.899364 0.220391 -2.770128
  C 0.461146 0.302772 -4.229992
  C 4.517092 0.137721 -1.304923
  C 5.311410 0.199410 -2.398240
  O 6.668948 0.197525 -2.364959
  H 0.538856 -0.018024 1.454979
  H 0.103955 -0.837706 -0.078609
  H 0.103954 0.968982 0.023340
  H 4.023023 0.872445 1.693739
  H 4.023023 -0.929655 1.592056
  H 2.795068 -0.636559 -3.246032
  H 2.795078 1.125452 -3.146619
  H 0.494734 1.075420 -2.232189
  H 0.494724 -0.689727 -2.331780
  H 0.836772 1.212862 -4.694051
  H -0.623810 0.306810 -4.301463
  H 0.836767 -0.549340 -4.793492
  H 4.993185 0.082902 -0.333415
  H 4.962722 0.256899 -3.417111
  H 6.971964 0.145870 -1.449561
 26
 114.440168
  C 0.419850 0.041910 0.392736
  C 2.429182 0.074534 -0.185320
  C 3.508514 -0.035201 1.759708
  H 2.686245 -0.073649 2.441030
  C 3.059008 0.139500 -1.336639
  C 2.431089 0.217109 -2.712059
  C 0.908956 0.221134 -2.783182
  C 0.437111 0.302812 -4.230557
  C 4.521383 0.138608 -1.320708
  C 5.318063 0.198901 -2.389280
  O 6.669295 0.196099 -2.339636
  H 0.522983 -0.018035 1.455113
  H 0.048423 -0.843438 -0.080860
  H 0.048418 0.974915 0.021742
  H 4.069081 0.879249 1.757401
  H 4.069082 -0.943562 1.654556
  H 2.807044 -0.633562 -3.289063
  H 2.807046 1.127295 -3.189699
  H 0.519566 1.073968 -2.231678
  H 0.519552 -0.688327 -2.331117
  H 0.801521 1.213290 -4.702798
  H -0.649260 0.305468 -4.277445
  H 0.801512 -0.548779 -4.802239
  H 4.973606 0.083260 -0.339772
  H 4.978366 0.256525 -3.410614
  H 6.959451 0.144392 -1.423214
 26
 139.451000
  C 0.320973 0.040960 0.409599
  C 2.429477 0.076492 -0.219998
  C 3.579650 -0.040733 1.857794
  H 2.738667 -0.078163 2.521101
  C 3.063088 0.141246 -1.367553
  C 2.433286 0.218966 -2.744952
  C 0.913119 0.222163 -2.801465
  C 0.425533 0.303599 -4.244595
  C 4.527707 0.139682 -1.339718
  C 5.331080 0.199524 -2.400325
  O 6.690513 0.196172 -2.340914
  H 0.453583 -0.018975 1.471801
  H -0.039716 -0.846123 -0.068526
  H -0.039720 0.976196 0.034300
  H 4.131075 0.875335 1.839966
  H 4.131092 -0.948977 1.737037
  H 2.806554 -0.631798 -3.323989
  H 2.806555 1.129469 -3.224608
  H 0.529082 1.076335 -2.243507
  H 0.529072 -0.689345 -2.343137
  H 0.784506 1.214036 -4.720612
  H -0.661346 0.305612 -4.280134
  H 0.784488 -0.547504 -4.820003
  H 4.969526 0.083985 -0.352575
  H 4.996948 0.257289 -3.424175
  H 6.977307 0.143991 -1.416066
 26
 160.982063
  C 0.225177 0.040123 0.424435
  C 2.427928 0.078466 -0.254985
  C 3.646579 -0.046647 1.962575
  H 2.787947 -0.082409 2.596300
  C 3.068327 0.143011 -1.398824
  C 2.441432 0.220696 -2.775567
  C 0.919296 0.223011 -2.816456
  C 0.414781 0.304057 -4.252703
  C 4.530802 0.140583 -1.355697
  C 5.344299 0.200170 -2.411766
  O 6.693972 0.196226 -2.341898
  H 0.390930 -0.019344 1.478313
  H -0.119992 -0.848933 -0.060421
  H -0.119996 0.978078 0.042671
  H 4.189392 0.875806 1.925810
  H 4.189401 -0.959096 1.822283
  H 2.812922 -0.630024 -3.355764
  H 2.812929 1.131297 -3.256390
  H 0.542028 1.075790 -2.253312
  H 0.542014 -0.687705 -2.352813
  H 0.767730 1.214774 -4.732825
  H -0.672296 0.305345 -4.275372
  H 0.767718 -0.546875 -4.832230
  H 4.958974 0.084556 -0.362722
  H 5.017987 0.258037 -3.437414
  H 6.969582 0.144400 -1.423360
 26
 178.522376
  C 0.130678 0.039048 0.443484
  C 2.424454 0.080351 -0.288375
  C 3.717736 -0.052594 2.067967
  H 2.839637 -0.086932 2.676453
  C 3.069240 0.144735 -1.429346
  C 2.444014 0.222534 -2.808119
  C 0.922045 0.224048 -2.834826
  C 0.401742 0.304797 -4.265832
  C 4.531740 0.141496 -1.371871
  C 5.351772 0.200652 -2.420302
  O 6.711153 0.196173 -2.340969
  H 0.331253 -0.020107 1.491833
  H -0.198716 -0.850859 -0.047725
  H -0.198719 0.978563 0.055505
  H 4.249328 0.871321 2.010434
  H 4.249339 -0.964162 1.906874
  H 2.813483 -0.628295 -3.389514
  H 2.813486 1.133367 -3.290116
  H 0.550682 1.076690 -2.266074
  H 0.550674 -0.687151 -2.365601
  H 0.749086 1.215727 -4.749725
  H -0.685572 0.305423 -4.276788
  H 0.749077 -0.545925 -4.849132
  H 4.948336 0.085131 -0.372889
  H 5.029988 0.258671 -3.448646
  H 6.985517 0.143613 -1.409398
 26
 192.172402
  C 0.035343 0.038106 0.460167
  C 2.420884 0.082095 -0.319288
  C 3.787710 -0.058752 2.177111
  H 2.893135 -0.091507 2.757536
  C 3.071114 0.146342 -1.457839
  C 2.450054 0.224142 -2.836599
  C 0.927120 0.224900 -2.849938
  C 0.392404 0.305310 -4.274934
  C 4.532469 0.142231 -1.384889
  C 5.362478 0.201127 -2.428719
  O 6.709630 0.196077 -2.339266
  H 0.267789 -0.020591 1.500402
  H -0.277373 -0.853888 -0.039037
  H -0.277377 0.980599 0.064477
  H 4.310609 0.870786 2.098645
  H 4.310620 -0.973553 1.994585
  H 2.817849 -0.626849 -3.418720
  H 2.817856 1.135223 -3.319305
  H 0.561437 1.076959 -2.276164
  H 0.561425 -0.686297 -2.375649
  H 0.734411 1.216373 -4.762192
  H -0.694856 0.305309 -4.274776
  H 0.734399 -0.545158 -4.861585
  H 4.936575 0.085577 -0.380791
  H 5.048915 0.259201 -3.458053
  H 6.970995 0.144213 -1.420013
 26
 202.317841
  C -0.062622 0.036948 0.480701
  C 2.417045 0.083696 -0.347650
  C 3.862232 -0.064729 2.283027
  H 2.953653 -0.096274 2.842018
  C 3.070079 0.147884 -1.485141
  C 2.451909 0.225742 -2.864930
  C 0.928777 0.225872 -2.867139
  C 0.381718 0.306024 -4.287580
  C 4.530544 0.143093 -1.400173
  C 5.364971 0.201582 -2.436774
  O 6.724823 0.196079 -2.339292
  H 0.198504 -0.021336 1.513608
  H -0.360336 -0.854819 -0.024364
  H -0.360339 0.979872 0.079164
  H 4.375201 0.865008 2.185583
  H 4.375212 -0.977592 2.081621
  H 2.817874 -0.625534 -3.447776
  H 2.817881 1.137183 -3.348323
  H 0.567898 1.077343 -2.289094
  H 0.567889 -0.685219 -2.388543
  H 0.719211 1.217334 -4.777727
  H -0.705560 0.305494 -4.278059
  H 0.719203 -0.544370 -4.877135
  H 4.926040 0.086221 -0.392211
  H 5.054311 0.259817 -3.468965
  H 6.988798 0.143080 -1.399947
 26
 209.543485
  C -0.163874 0.035847 0.500217
  C 2.414638 0.085117 -0.372828
  C 3.933599 -0.070819 2.390971
  H 3.012592 -0.101139 2.928252
  C 3.071872 0.149221 -1.508839
  C 2.458014 0.227068 -2.888440
  C 0.934001 0.226596 -2.880000
  C 0.375594 0.306473 -4.295550
  C 4.532075 0.143690 -1.410745
  C 5.375507 0.201983 -2.443885
  O 6.718915 0.196008 -2.338027
  H 0.122803 -0.022066 1.526551
  H -0.446753 -0.858018 -0.012470
  H -0.446756 0.981714 0.091342
  H 4.439961 0.863442 2.276060
  H 4.439974 -0.986216 2.171700
  H 2.822266 -0.624467 -3.471815
  H 2.822273 1.138823 -3.372328
  H 0.577534 1.077835 -2.297697
  H 0.577528 -0.684735 -2.397150
  H 0.708748 1.217853 -4.788249
  H -0.711491 0.305442 -4.277172
  H 0.708738 -0.543699 -4.887643
  H 4.918273 0.086614 -0.399179
  H 5.072934 0.260220 -3.476112
  H 6.967928 0.144232 -1.420335
 26
 214.402456
  C -0.269096 0.034424 0.525448
  C 2.412434 0.086425 -0.396001
  C 4.008839 -0.076576 2.492983
  H 3.079584 -0.106056 3.015371
  C 3.071005 0.150513 -1.531713
  C 2.459531 0.228394 -2.911886
  C 0.935495 0.227427 -2.894684
  C 0.367466 0.307084 -4.306395
  C 4.530034 0.144514 -1.425344
  C 5.374703 0.202446 -2.452079
  O 6.735676 0.196151 -2.340568
  H 0.039243 -0.023045 1.543897
  H -0.539577 -0.858070 0.008634
  H -0.539578 0.979392 0.112319
  H 4.507461 0.856250 2.364121
  H 4.507473 -0.988977 2.260010
  H 2.821850 -0.623440 -3.495885
  H 2.821861 1.140519 -3.396363
  H 0.582884 1.077827 -2.309223
  H 0.582874 -0.683435 -2.408597
  H 0.697012 1.218710 -4.801305
  H -0.719501 0.305636 -4.280610
  H 0.697005 -0.543090 -4.900718
  H 4.911499 0.087344 -0.412114
  H 5.072485 0.260851 -3.487254
  H 6.993169 0.142632 -1.392003
 26
 217.486756
  C -0.377305 0.033067 0.549479
  C 2.412791 0.087497 -0.415012
  C 4.078285 -0.082598 2.599722
  H 3.140070 -0.111229 3.107063
  C 3.074628 0.151491 -1.549061
  C 2.466447 0.229340 -2.928693
  C 0.941337 0.227877 -2.902664
  C 0.364075 0.307306 -4.310329
  C 4.534209 0.144907 -1.432335
  C 5.386979 0.202763 -2.457728
  O 6.724893 0.196138 -2.340313
  H -0.049839 -0.024176 1.563945
  H -0.635944 -0.862041 0.025913
  H -0.635946 0.981394 0.129934
  H 4.573258 0.854386 2.458762
  H 4.573271 -0.997773 2.354260
  H 2.826983 -0.622770 -3.513206
  H 2.826989 1.141789 -3.413644
  H 0.592243 1.078298 -2.313557
  H 0.592237 -0.683406 -2.412963
  H 0.689984 1.218962 -4.807247
  H -0.722624 0.305448 -4.277286
  H 0.689975 -0.542667 -4.906645
  H 4.909380 0.087609 -0.416812
  H 5.092564 0.261106 -3.491793
  H 6.964422 0.144619 -1.427133
