 26
 0.000000
  C 0.976623 0.152989 0.433987
  C 2.450565 0.136609 0.391920
  C 3.233336 0.603360 1.551300
  H 2.632357 0.939194 2.386834
  C 3.051543 -0.330952 -0.771101
  C 4.427849 -0.414774 -0.980763
  C 5.113660 -0.865140 -2.103989
  C 4.621448 -1.387661 -3.407636
  C 3.132408 -1.507344 -3.707568
  C 2.925565 -2.070045 -5.111540
  O 6.433950 -0.857879 -2.085976
  H 0.584804 0.530801 1.373295
  H 0.586377 -0.853216 0.275081
  H 0.585677 0.768478 -0.377406
  H 3.886135 1.422676 1.243266
  H 3.886867 -0.200474 1.896289
  H 2.387424 -0.647050 -1.556797
  H 5.050285 -0.084038 -0.157579
  H 5.082780 -2.374198 -3.532016
  H 5.083470 -0.760657 -4.178988
  H 2.655215 -0.528085 -3.657960
  H 2.654623 -2.180931 -2.995451
  H 3.370578 -1.420964 -5.862039
  H 1.863867 -2.156527 -5.328252
  H 3.370056 -3.058052 -5.205826
  H 6.817685 -0.524817 -1.252973
 26
 -0.217146
  C 0.980324 0.173868 0.449142
  C 2.452922 0.133563 0.387318
  C 3.240648 0.594016 1.547234
  H 2.602499 0.895018 2.373336
  C 3.040877 -0.335269 -0.781146
  C 4.417538 -0.418870 -0.985150
  C 5.110945 -0.865909 -2.106492
  C 4.620397 -1.384383 -3.411736
  C 3.131464 -1.517672 -3.707717
  C 2.932550 -2.081220 -5.113778
  O 6.429172 -0.856823 -2.083562
  H 0.614349 0.510188 1.414248
  H 0.562483 -0.809770 0.229379
  H 0.592604 0.838593 -0.325463
  H 3.868099 1.442027 1.267626
  H 3.912413 -0.191348 1.893087
  H 2.371519 -0.645758 -1.564661
  H 5.043948 -0.091136 -0.162623
  H 5.096736 -2.364429 -3.544329
  H 5.077595 -0.749738 -4.179629
  H 2.646470 -0.542720 -3.658509
  H 2.663029 -2.197424 -2.996016
  H 3.357356 -1.418251 -5.862651
  H 1.873894 -2.196248 -5.328285
  H 3.404266 -3.056254 -5.213545
  H 6.822991 -0.530565 -1.252755
 26
 -0.211091
  C 0.978205 0.170329 0.450797
  C 2.453370 0.129373 0.386759
  C 3.241285 0.604701 1.539634
  H 2.602536 0.881356 2.372369
  C 3.040164 -0.346307 -0.777621
  C 4.417374 -0.420885 -0.983644
  C 5.112714 -0.873484 -2.103009
  C 4.623593 -1.398150 -3.406097
  C 3.132210 -1.520233 -3.706358
  C 2.932576 -2.072369 -5.115748
  O 6.430731 -0.862485 -2.079181
  H 0.611083 0.468670 1.434121
  H 0.554675 -0.796722 0.183602
  H 0.595990 0.872931 -0.292417
  H 3.834767 1.474115 1.258666
  H 3.942210 -0.159105 1.874484
  H 2.368173 -0.669851 -1.559796
  H 5.045006 -0.081523 -0.163399
  H 5.091644 -2.381333 -3.528424
  H 5.089070 -0.772347 -4.177323
  H 2.653960 -0.542455 -3.651530
  H 2.657113 -2.203542 -2.998087
  H 3.347829 -1.394827 -5.863035
  H 1.867419 -2.198383 -5.327731
  H 3.413371 -3.036924 -5.226258
  H 6.823185 -0.534809 -1.252083
 26
 -0.248597
  C 0.980271 0.134910 0.468942
  C 2.452886 0.122343 0.391490
  C 3.239995 0.649057 1.522763
  H 2.600954 0.943844 2.349468
  C 3.040113 -0.372966 -0.767055
  C 4.415941 -0.428497 -0.982192
  C 5.110459 -0.890393 -2.097241
  C 4.620343 -1.425766 -3.396329
  C 3.132120 -1.511077 -3.711270
  C 2.934751 -2.039729 -5.130368
  O 6.428403 -0.876047 -2.075684
  H 0.619594 0.402495 1.456593
  H 0.567299 -0.829820 0.177518
  H 0.582667 0.854792 -0.250297
  H 3.819715 1.518392 1.209287
  H 3.954358 -0.093434 1.879765
  H 2.370934 -0.729428 -1.531300
  H 5.041786 -0.069134 -0.173850
  H 5.062336 -2.423523 -3.498161
  H 5.110576 -0.824734 -4.171687
  H 2.674510 -0.522771 -3.645744
  H 2.636864 -2.192653 -3.020066
  H 3.366021 -1.361529 -5.861729
  H 1.875906 -2.142690 -5.351581
  H 3.400917 -3.014953 -5.251617
  H 6.822829 -0.539906 -1.249195
 26
 -0.192140
  C 0.982661 0.101252 0.484174
  C 2.452720 0.116696 0.393712
  C 3.239597 0.696662 1.500278
  H 2.597823 1.050468 2.302093
  C 3.039752 -0.398257 -0.756860
  C 4.415238 -0.442398 -0.978292
  C 5.109108 -0.913165 -2.089519
  C 4.623780 -1.447972 -3.391511
  C 3.135091 -1.506149 -3.713528
  C 2.936527 -2.000604 -5.143490
  O 6.427894 -0.902647 -2.064631
  H 0.624100 0.400126 1.464557
  H 0.589307 -0.884227 0.236213
  H 0.561513 0.783850 -0.262905
  H 3.841369 1.536007 1.144116
  H 3.929707 -0.036550 1.907550
  H 2.372945 -0.783930 -1.505426
  H 5.040817 -0.068567 -0.176688
  H 5.045320 -2.456219 -3.478139
  H 5.124132 -0.855278 -4.164793
  H 2.690295 -0.511129 -3.627863
  H 2.628852 -2.196556 -3.038768
  H 3.358329 -1.299158 -5.859794
  H 1.875173 -2.102348 -5.364253
  H 3.407121 -2.967879 -5.290765
  H 6.822085 -0.574743 -1.234413
 26
 -0.112567
  C 0.983658 0.074428 0.487578
  C 2.454231 0.107200 0.392032
  C 3.234223 0.724238 1.481290
  H 2.585655 1.123175 2.255672
  C 3.044747 -0.414988 -0.754019
  C 4.420418 -0.454836 -0.972523
  C 5.114969 -0.926015 -2.084429
  C 4.625239 -1.456867 -3.387584
  C 3.136675 -1.497322 -3.707651
  C 2.931714 -1.970813 -5.144407
  O 6.432482 -0.914476 -2.060417
  H 0.622186 0.409599 1.454853
  H 0.604969 -0.926424 0.283896
  H 0.550190 0.714830 -0.288407
  H 3.858212 1.534625 1.100101
  H 3.904808 -0.006765 1.935481
  H 2.379759 -0.811394 -1.499233
  H 5.042331 -0.078612 -0.170778
  H 5.031478 -2.469418 -3.466625
  H 5.130928 -0.868027 -4.160445
  H 2.701777 -0.500509 -3.607672
  H 2.624430 -2.193057 -3.039066
  H 3.334335 -1.249910 -5.851564
  H 1.873822 -2.081944 -5.357259
  H 3.415640 -2.930075 -5.314249
  H 6.826931 -0.596045 -1.226019
 26
 -0.226766
  C 0.981526 0.041812 0.502927
  C 2.451865 0.104172 0.392334
  C 3.229772 0.745012 1.469637
  H 2.580846 1.155605 2.237458
  C 3.043598 -0.420453 -0.750519
  C 4.418612 -0.440752 -0.979256
  C 5.113482 -0.927275 -2.083731
  C 4.619205 -1.481584 -3.375053
  C 3.138831 -1.476087 -3.714172
  C 2.938141 -1.949408 -5.151886
  O 6.429978 -0.917916 -2.062078
  H 0.626098 0.352179 1.478943
  H 0.618584 -0.960537 0.282845
  H 0.527901 0.691896 -0.253929
  H 3.856635 1.547052 1.075185
  H 3.900543 0.017183 1.939165
  H 2.382425 -0.840219 -1.483619
  H 5.042926 -0.047503 -0.183671
  H 4.991245 -2.510985 -3.425082
  H 5.160195 -0.938323 -4.161883
  H 2.734647 -0.465179 -3.622204
  H 2.595993 -2.152497 -3.052303
  H 3.363950 -1.241653 -5.856910
  H 1.877757 -2.042786 -5.374719
  H 3.404878 -2.918000 -5.312944
  H 6.826454 -0.582661 -1.235463
 26
 -0.310437
  C 0.991087 0.005256 0.534400
  C 2.455716 0.104517 0.397688
  C 3.231548 0.786663 1.450839
  H 2.578677 1.253831 2.182741
  C 3.044294 -0.440969 -0.737337
  C 4.416484 -0.447638 -0.978633
  C 5.107187 -0.939112 -2.083571
  C 4.609109 -1.508672 -3.365586
  C 3.131435 -1.458159 -3.727507
  C 2.938729 -1.920730 -5.170573
  O 6.425742 -0.918377 -2.069990
  H 0.646628 0.314593 1.514660
  H 0.648686 -1.008553 0.326655
  H 0.509414 0.638438 -0.216035
  H 3.887387 1.546912 1.029012
  H 3.868988 0.069669 1.971625
  H 2.381035 -0.899259 -1.450233
  H 5.043560 -0.029339 -0.197429
  H 4.946038 -2.551408 -3.386534
  H 5.180474 -1.005969 -4.155647
  H 2.754891 -0.436142 -3.636425
  H 2.557457 -2.121452 -3.078149
  H 3.408850 -1.230379 -5.867288
  H 1.880889 -1.969322 -5.413617
  H 3.367614 -2.908433 -5.324034
  H 6.824520 -0.582430 -1.244799
 26
 -0.371386
  C 0.991463 -0.001784 0.535948
  C 2.455307 0.108760 0.396765
  C 3.229570 0.762516 1.468407
  H 2.577226 1.240080 2.193846
  C 3.044049 -0.413226 -0.748535
  C 4.417321 -0.420713 -0.988362
  C 5.106401 -0.915919 -2.091976
  C 4.603100 -1.514764 -3.358070
  C 3.127977 -1.451218 -3.733985
  C 2.941121 -1.934089 -5.171017
  O 6.423756 -0.880845 -2.088927
  H 0.649888 0.273125 1.528005
  H 0.648726 -1.007606 0.292969
  H 0.507951 0.658671 -0.186302
  H 3.920823 1.503896 1.068687
  H 3.832083 0.018247 1.995136
  H 2.380697 -0.848378 -1.474772
  H 5.043441 -0.007217 -0.207838
  H 4.925815 -2.563727 -3.352460
  H 5.190703 -1.051486 -4.158510
  H 2.764880 -0.425433 -3.661227
  H 2.537739 -2.094616 -3.082287
  H 3.415065 -1.255126 -5.875260
  H 1.884522 -1.991470 -5.416885
  H 3.373164 -2.923953 -5.307909
  H 6.824262 -0.521203 -1.275105
 26
 -0.272354
  C 0.984641 0.042025 0.512723
  C 2.451499 0.117903 0.391446
  C 3.232420 0.761988 1.465092
  H 2.587005 1.169067 2.236103
  C 3.040219 -0.422335 -0.745702
  C 4.414833 -0.451496 -0.974347
  C 5.106400 -0.934011 -2.082231
  C 4.612335 -1.488774 -3.372044
  C 3.130583 -1.479809 -3.718299
  C 2.935084 -1.945962 -5.159334
  O 6.425629 -0.919376 -2.064121
  H 0.634499 0.342742 1.493872
  H 0.627892 -0.963635 0.287980
  H 0.522252 0.691331 -0.233155
  H 3.852860 1.565788 1.068177
  H 3.907623 0.039912 1.928072
  H 2.375288 -0.856506 -1.472419
  H 5.040068 -0.044893 -0.189067
  H 4.983242 -2.519388 -3.426251
  H 5.158430 -0.949538 -4.156348
  H 2.726998 -0.470267 -3.621164
  H 2.582261 -2.159097 -3.062389
  H 3.397011 -1.253815 -5.858077
  H 1.875280 -2.002404 -5.397601
  H 3.369253 -2.929848 -5.313402
  H 6.821546 -0.595007 -1.233483
 26
 -0.213268
  C 0.980120 0.104989 0.478982
  C 2.451843 0.109756 0.395671
  C 3.239785 0.664122 1.516611
  H 2.598785 1.008065 2.321743
  C 3.038795 -0.387891 -0.761148
  C 4.413409 -0.431582 -0.981282
  C 5.108064 -0.887040 -2.099654
  C 4.614888 -1.407260 -3.403175
  C 3.127113 -1.504850 -3.710853
  C 2.926927 -2.022922 -5.132168
  O 6.424419 -0.883009 -2.076373
  H 0.618443 0.423150 1.450340
  H 0.585572 -0.883041 0.250539
  H 0.566330 0.768492 -0.282410
  H 3.850616 1.500533 1.178678
  H 3.925443 -0.085542 1.915335
  H 2.370939 -0.752859 -1.520164
  H 5.040290 -0.074530 -0.171593
  H 5.068430 -2.397660 -3.523300
  H 5.090867 -0.787773 -4.172289
  H 2.660719 -0.522566 -3.633867
  H 2.641504 -2.197635 -3.020701
  H 3.339427 -1.326922 -5.863027
  H 1.866220 -2.142798 -5.344783
  H 3.409402 -2.988879 -5.268262
  H 6.822536 -0.553003 -1.248798
 26
 -0.121333
  C 0.980300 0.173480 0.449223
  C 2.451743 0.133772 0.385711
  C 3.238919 0.619402 1.534819
  H 2.598795 0.913081 2.359687
  C 3.039169 -0.349512 -0.778723
  C 4.420664 -0.447513 -0.977873
  C 5.106147 -0.884302 -2.100804
  C 4.617652 -1.353619 -3.423619
  C 3.129026 -1.534028 -3.696000
  C 2.924560 -2.074301 -5.109255
  O 6.420461 -0.894905 -2.072455
  H 0.615750 0.523294 1.409108
  H 0.564174 -0.813330 0.244164
  H 0.589816 0.823946 -0.335064
  H 3.842728 1.479562 1.243358
  H 3.930969 -0.145391 1.885941
  H 2.370784 -0.665450 -1.560288
  H 5.049732 -0.139671 -0.150946
  H 5.133170 -2.300948 -3.613680
  H 5.028607 -0.661475 -4.167184
  H 2.610334 -0.578123 -3.617189
  H 2.699414 -2.242167 -2.986214
  H 3.302788 -1.375274 -5.851570
  H 1.866922 -2.233152 -5.303926
  H 3.437522 -3.024019 -5.241952
  H 6.810740 -0.608013 -1.231216
