 29
 0.000000
  C 0.967439 0.141592 0.404291
  C 2.443463 0.138601 0.396214
  C 3.233545 0.606646 1.560451
  C 2.460841 1.096880 2.780643
  H 3.138418 1.410467 3.560731
  C 3.055443 -0.326746 -0.762154
  C 4.433399 -0.411825 -0.974629
  C 5.114853 -0.862194 -2.097565
  C 4.623621 -1.385255 -3.401760
  C 3.133793 -1.504357 -3.699532
  C 2.915227 -2.066597 -5.101472
  O 6.437152 -0.855791 -2.081891
  H 0.537290 0.512521 1.327320
  H 0.594304 -0.869829 0.238531
  H 0.593918 0.756812 -0.415268
  H 3.889575 1.417358 1.224360
  H 3.889885 -0.210951 1.878763
  H 1.825141 0.303280 3.171921
  H 1.824904 1.940392 2.514050
  H 2.394840 -0.643354 -1.550217
  H 5.045669 -0.078592 -0.144928
  H 5.081360 -2.373223 -3.526381
  H 5.081752 -0.757495 -4.174554
  H 2.657564 -0.524492 -3.647412
  H 2.657191 -2.176446 -2.984844
  H 3.355564 -1.418780 -5.855958
  H 1.851169 -2.149357 -5.308449
  H 3.355215 -3.056399 -5.199152
  H 6.809301 -0.520650 -1.244750
 29
 7.770791
  C 0.994712 0.124434 0.361975
  C 2.456005 0.149630 0.423584
  C 3.197420 0.626017 1.608082
  C 2.369554 1.101572 2.792256
  H 3.035224 1.424623 3.595571
  C 3.144123 -0.296823 -0.687687
  C 4.477608 -0.405886 -0.959313
  C 5.145860 -0.878096 -2.136834
  C 4.602759 -1.390121 -3.413689
  C 3.099946 -1.491866 -3.669094
  C 2.854880 -2.053559 -5.069101
  O 6.466623 -0.887470 -2.160618
  H 0.524155 0.487558 1.265505
  H 0.651218 -0.892706 0.165053
  H 0.650539 0.721966 -0.484040
  H 3.859001 1.439276 1.287891
  H 3.859706 -0.182112 1.939616
  H 1.739692 0.306123 3.178827
  H 1.739194 1.942882 2.521147
  H 2.730447 -0.662163 -1.597322
  H 5.159889 -0.090003 -0.172253
  H 5.057500 -2.380513 -3.548360
  H 5.058468 -0.767955 -4.195532
  H 2.632435 -0.508194 -3.610721
  H 2.631234 -2.162005 -2.947440
  H 3.289639 -1.409024 -5.829125
  H 1.788270 -2.130681 -5.262857
  H 3.288812 -3.045144 -5.172583
  H 6.900036 -0.557469 -1.336430
 29
 24.330578
  C 1.046725 0.088657 0.275686
  C 2.497348 0.146217 0.414468
  C 3.175684 0.636584 1.631899
  C 2.285200 1.094391 2.774123
  H 2.901149 1.429234 3.605387
  C 3.250775 -0.278492 -0.643079
  C 4.564867 -0.403395 -0.954849
  C 5.162593 -0.880111 -2.141694
  C 4.566036 -1.381275 -3.391004
  C 3.063248 -1.464103 -3.602695
  C 2.777426 -2.025318 -4.999920
  O 6.480114 -0.910842 -2.215349
  H 0.518676 0.440019 1.150340
  H 0.738905 -0.935112 0.057386
  H 0.736731 0.674864 -0.590723
  H 3.837696 1.454638 1.332785
  H 3.839913 -0.159194 1.982049
  H 1.656917 0.282482 3.132217
  H 1.654729 1.926707 2.471657
  H 3.067953 -0.663527 -1.600614
  H 5.313292 -0.106801 -0.217505
  H 5.001678 -2.376939 -3.544944
  H 5.004306 -0.770151 -4.190882
  H 2.606844 -0.474833 -3.537318
  H 2.604041 -2.131878 -2.871895
  H 3.200844 -1.385922 -5.771602
  H 1.705134 -2.090241 -5.165537
  H 3.198404 -3.022226 -5.113814
  H 6.950577 -0.583340 -1.393601
 29
 42.978724
  C 1.036162 0.074861 0.255958
  C 2.497322 0.148858 0.420772
  C 3.155464 0.649569 1.653832
  C 2.247587 1.099003 2.782523
  H 2.849221 1.437246 3.614305
  C 3.285519 -0.270811 -0.625109
  C 4.593498 -0.391932 -0.932179
  C 5.204920 -0.888167 -2.157779
  C 4.572967 -1.393891 -3.417581
  C 3.057953 -1.458568 -3.598211
  C 2.739223 -2.015903 -4.984489
  O 6.510780 -0.924528 -2.234285
  H 0.492238 0.423314 1.124567
  H 0.743340 -0.950171 0.034570
  H 0.734853 0.654987 -0.614694
  H 3.814795 1.476121 1.370703
  H 3.823851 -0.136016 2.020295
  H 1.620555 0.281606 3.136705
  H 1.611161 1.927661 2.474061
  H 3.285979 -0.663887 -1.596584
  H 5.377084 -0.104230 -0.226801
  H 4.989693 -2.394677 -3.580040
  H 4.998161 -0.790529 -4.227910
  H 2.613874 -0.467525 -3.522539
  H 2.604744 -2.115692 -2.858155
  H 3.154760 -1.382002 -5.765274
  H 1.663170 -2.068753 -5.129835
  H 3.145890 -3.017771 -5.105405
  H 6.975673 -0.612969 -1.442400
 29
 62.328897
  C 1.018389 0.085267 0.292332
  C 2.480826 0.156735 0.443529
  C 3.142783 0.658346 1.669420
  C 2.243501 1.108181 2.800069
  H 2.851264 1.448810 3.630701
  C 3.263192 -0.266059 -0.608396
  C 4.574471 -0.397867 -0.944174
  C 5.195604 -0.898751 -2.176758
  C 4.578332 -1.403655 -3.436150
  C 3.055856 -1.470706 -3.631687
  C 2.747968 -2.026451 -5.020224
  O 6.502203 -0.927932 -2.233919
  H 0.483361 0.435818 1.163744
  H 0.722256 -0.940460 0.075174
  H 0.710879 0.664523 -0.577582
  H 3.801107 1.486006 1.382001
  H 3.814398 -0.126893 2.034550
  H 1.620726 0.293784 3.157273
  H 1.607313 1.933295 2.494725
  H 3.403862 -0.660677 -1.579952
  H 5.395977 -0.111931 -0.249110
  H 4.999531 -2.408616 -3.593415
  H 5.011316 -0.795026 -4.244787
  H 2.608882 -0.481119 -3.556239
  H 2.595736 -2.126838 -2.895136
  H 3.168550 -1.392237 -5.796161
  H 1.673966 -2.080280 -5.174397
  H 3.156053 -3.026511 -5.138887
  H 6.956935 -0.608974 -1.431833
 29
 79.907394
  C 1.018777 0.086194 0.303764
  C 2.467316 0.154953 0.443039
  C 3.138735 0.663244 1.676178
  C 2.236294 1.123794 2.831050
  H 2.849917 1.466682 3.660622
  C 3.237035 -0.271375 -0.615553
  C 4.560080 -0.411943 -0.970904
  C 5.198512 -0.902377 -2.180611
  C 4.586294 -1.412908 -3.458070
  C 3.069718 -1.474592 -3.643411
  C 2.743596 -2.032569 -5.043208
  O 6.495477 -0.920938 -2.212166
  H 0.491309 0.437820 1.174977
  H 0.719723 -0.948781 0.089389
  H 0.706380 0.670261 -0.572305
  H 3.795737 1.487865 1.383742
  H 3.811620 -0.120241 2.037730
  H 1.614751 0.311204 3.194470
  H 1.599339 1.948780 2.529487
  H 3.500656 -0.662258 -1.577789
  H 5.385855 -0.131109 -0.286838
  H 5.002176 -2.413644 -3.621726
  H 5.015086 -0.809847 -4.267830
  H 2.627241 -0.477075 -3.559970
  H 2.612069 -2.132224 -2.898692
  H 3.159565 -1.400419 -5.824329
  H 1.668278 -2.081803 -5.188857
  H 3.146085 -3.035812 -5.168834
  H 6.930370 -0.594553 -1.392268
 29
 93.316259
  C 0.994422 0.010750 0.294930
  C 2.464869 0.123511 0.408903
  C 3.131672 0.689457 1.626174
  C 2.226659 1.144231 2.759316
  H 2.834211 1.524604 3.578479
  C 3.228699 -0.300083 -0.630115
  C 4.566892 -0.465600 -0.993101
  C 5.225396 -0.933974 -2.184372
  C 4.609820 -1.412258 -3.446388
  C 3.092057 -1.432218 -3.585291
  C 2.707886 -1.954522 -4.967732
  O 6.540670 -0.970687 -2.220108
  H 0.475170 0.377012 1.172343
  H 0.708001 -1.031444 0.118384
  H 0.657146 0.568262 -0.581590
  H 3.763509 1.527423 1.316384
  H 3.825345 -0.067541 1.998909
  H 1.630218 0.321982 3.142016
  H 1.564331 1.942842 2.440933
  H 3.593576 -0.694374 -1.586376
  H 5.377986 -0.192701 -0.284593
  H 5.008245 -2.417049 -3.631391
  H 5.041662 -0.804430 -4.250369
  H 2.684302 -0.429032 -3.469314
  H 2.647806 -2.085007 -2.833856
  H 3.114375 -1.321045 -5.750154
  H 1.627960 -1.973304 -5.077486
  H 3.079336 -2.963910 -5.119787
  H 6.979855 -0.665589 -1.415064
 29
 97.481090
  C 0.985372 -0.034642 0.284557
  C 2.481375 0.097209 0.382181
  C 3.133345 0.714168 1.620242
  C 2.178257 1.157438 2.709948
  H 2.757598 1.568243 3.533036
  C 3.248914 -0.305765 -0.597658
  C 4.618805 -0.513588 -1.027069
  C 5.270111 -0.954157 -2.185212
  C 4.631442 -1.416027 -3.455783
  C 3.109944 -1.404334 -3.539776
  C 2.658471 -1.900758 -4.912627
  O 6.597335 -1.006708 -2.252436
  H 0.489032 0.351009 1.170167
  H 0.700375 -1.083605 0.142862
  H 0.628084 0.518908 -0.593429
  H 3.735587 1.566035 1.308466
  H 3.822137 -0.023082 2.021706
  H 1.593209 0.328066 3.094084
  H 1.503913 1.933246 2.361996
  H 3.698320 -0.721951 -1.595766
  H 5.400132 -0.256421 -0.309938
  H 5.004621 -2.423147 -3.657340
  H 5.048505 -0.803541 -4.258054
  H 2.722543 -0.393745 -3.402903
  H 2.685826 -2.060233 -2.777388
  H 3.047935 -1.264023 -5.700282
  H 1.574943 -1.898176 -4.980724
  H 3.006350 -2.913717 -5.090787
  H 7.072631 -0.714720 -1.458557
 29
 101.848013
  C 0.969330 -0.047993 0.348500
  C 2.454584 0.100470 0.423341
  C 3.116245 0.749000 1.641849
  C 2.175378 1.208431 2.752775
  H 2.776526 1.645323 3.558124
  C 3.208945 -0.308278 -0.561031
  C 4.578388 -0.558542 -1.066660
  C 5.269761 -0.984515 -2.215942
  C 4.665516 -1.431387 -3.501876
  C 3.135095 -1.411714 -3.594273
  C 2.681540 -1.891795 -4.972828
  O 6.598983 -1.028554 -2.244990
  H 0.489530 0.340970 1.234084
  H 0.705681 -1.105083 0.242333
  H 0.587487 0.487057 -0.521875
  H 3.697928 1.607592 1.287416
  H 3.821646 0.018205 2.052068
  H 1.612492 0.382370 3.171878
  H 1.485741 1.970290 2.407517
  H 3.685427 -0.752170 -1.612055
  H 5.329344 -0.300203 -0.295486
  H 5.040223 -2.444162 -3.702683
  H 5.095654 -0.801328 -4.293296
  H 2.752755 -0.399816 -3.449150
  H 2.698893 -2.074926 -2.843532
  H 3.075742 -1.250451 -5.751746
  H 1.598297 -1.880707 -5.042489
  H 3.020890 -2.904334 -5.160483
  H 7.042980 -0.742005 -1.439450
 29
 106.602825
  C 0.935680 -0.089100 0.449348
  C 2.433553 0.095189 0.469912
  C 3.116307 0.800994 1.646095
  C 2.205879 1.269260 2.755151
  H 2.813110 1.743009 3.520430
  C 3.161077 -0.328444 -0.523938
  C 4.523368 -0.614385 -1.086613
  C 5.261138 -1.017100 -2.221976
  C 4.682820 -1.442897 -3.540619
  C 3.162896 -1.409503 -3.654070
  C 2.724289 -1.861383 -5.045983
  O 6.580845 -1.062530 -2.205687
  H 0.472655 0.320125 1.345471
  H 0.694727 -1.148288 0.387409
  H 0.509527 0.408061 -0.424409
  H 3.660526 1.654577 1.246483
  H 3.846718 0.104784 2.057095
  H 1.679257 0.443870 3.216594
  H 1.489547 2.000530 2.404712
  H 3.659952 -0.807505 -1.618542
  H 5.225428 -0.358627 -0.272358
  H 5.050181 -2.450232 -3.751416
  H 5.125035 -0.804451 -4.309369
  H 2.786401 -0.392995 -3.495708
  H 2.707601 -2.084202 -2.921183
  H 3.136189 -1.208062 -5.812570
  H 1.641659 -1.839094 -5.129038
  H 3.058311 -2.877078 -5.247115
  H 7.005696 -0.783772 -1.365257
 29
 112.188491
  C 0.912442 -0.151801 0.579379
  C 2.398507 0.078264 0.513454
  C 3.115628 0.860908 1.616867
  C 2.241637 1.358129 2.758696
  H 2.877633 1.894190 3.478369
  C 3.080232 -0.370968 -0.499229
  C 4.441156 -0.684802 -1.097617
  C 5.236424 -1.059620 -2.218664
  C 4.705816 -1.447122 -3.560119
  C 3.183926 -1.396955 -3.721756
  C 2.785157 -1.811392 -5.138997
  O 6.553894 -1.113744 -2.141589
  H 0.484597 0.280070 1.469535
  H 0.704604 -1.216431 0.573951
  H 0.429046 0.287237 -0.286602
  H 3.611750 1.716106 1.148610
  H 3.889838 0.207547 2.025132
  H 1.763889 0.533782 3.289091
  H 1.479235 2.054140 2.409202
  H 3.615817 -0.889959 -1.630094
  H 5.096501 -0.444896 -0.257156
  H 5.072102 -2.455522 -3.785108
  H 5.177099 -0.792721 -4.300355
  H 2.812120 -0.379449 -3.548888
  H 2.698158 -2.086731 -3.020801
  H 3.225320 -1.146399 -5.874876
  H 1.707433 -1.777010 -5.255831
  H 3.115601 -2.822658 -5.354156
  H 6.936390 -0.859895 -1.287911
 29
 115.964090
  C 0.888085 -0.287748 0.786958
  C 2.341505 0.020549 0.551702
  C 3.109662 0.947530 1.499496
  C 2.320974 1.496313 2.672997
  H 2.978894 2.127093 3.269223
  C 2.946682 -0.481293 -0.486030
  C 4.317721 -0.807640 -1.076697
  C 5.187267 -1.125526 -2.173774
  C 4.723842 -1.438845 -3.558221
  C 3.216415 -1.351032 -3.786118
  C 2.876512 -1.681980 -5.236869
  O 6.493440 -1.211239 -2.013158
  H 0.518432 0.200727 1.678579
  H 0.749647 -1.361000 0.891986
  H 0.294674 0.043548 -0.061987
  H 3.499935 1.782182 0.912571
  H 3.963541 0.377697 1.882853
  H 1.953018 0.701560 3.316006
  H 1.486128 2.108786 2.344073
  H 3.553603 -1.040912 -1.649555
  H 4.926076 -0.598648 -0.189131
  H 5.084826 -2.439693 -3.817278
  H 5.240633 -0.754411 -4.239645
  H 2.856551 -0.339595 -3.575554
  H 2.687762 -2.066240 -3.147610
  H 3.362839 -0.986117 -5.917175
  H 1.803292 -1.619803 -5.399962
  H 3.199665 -2.689123 -5.490966
  H 6.831249 -1.004381 -1.122725
 29
 118.735870
  C 0.901556 -0.345466 0.903640
  C 2.328294 0.007492 0.589853
  C 3.094101 1.016465 1.455946
  C 2.330934 1.602284 2.633769
  H 2.992263 2.287921 3.162844
  C 2.926466 -0.521370 -0.440728
  C 4.272610 -0.871007 -1.070178
  C 5.181246 -1.184684 -2.168630
  C 4.744465 -1.447632 -3.568351
  C 3.243715 -1.322303 -3.834914
  C 2.926221 -1.602719 -5.304491
  O 6.477114 -1.303529 -1.970973
  H 0.547975 0.171517 1.785500
  H 0.817325 -1.418093 1.063100
  H 0.255416 -0.084200 0.067239
  H 3.429456 1.833191 0.816818
  H 3.982648 0.507639 1.832206
  H 2.019451 0.831228 3.339290
  H 1.453177 2.161472 2.310014
  H 3.550776 -1.121352 -1.684354
  H 4.857547 -0.678775 -0.166960
  H 5.091246 -2.446948 -3.849426
  H 5.294431 -0.754804 -4.212065
  H 2.894161 -0.311838 -3.605061
  H 2.681255 -2.045042 -3.234319
  H 3.437358 -0.890783 -5.948448
  H 1.857292 -1.511020 -5.480073
  H 3.234336 -2.607950 -5.582457
  H 6.794974 -1.126071 -1.067666
 29
 122.597329
  C 0.934282 -0.392413 1.046279
  C 2.320037 0.006205 0.631614
  C 3.095507 1.087170 1.400285
  C 2.380137 1.695517 2.594882
  H 3.033897 2.431556 3.056869
  C 2.866337 -0.552468 -0.409780
  C 4.169105 -0.924629 -1.099707
  C 5.118196 -1.223775 -2.148465
  C 4.749650 -1.453916 -3.568561
  C 3.266510 -1.284570 -3.904340
  C 3.018674 -1.528120 -5.391151
  O 6.401798 -1.366989 -1.888379
  H 0.610494 0.149569 1.928366
  H 0.899356 -1.456068 1.263853
  H 0.232026 -0.193901 0.237692
  H 3.353727 1.886484 0.705765
  H 4.029927 0.632976 1.741007
  H 2.147223 0.944140 3.347100
  H 1.465921 2.204260 2.297619
  H 3.513264 -1.174266 -1.758919
  H 4.708163 -0.765491 -0.162998
  H 5.087500 -2.453562 -3.853476
  H 5.344546 -0.758946 -4.167916
  H 2.928877 -0.274336 -3.667663
  H 2.663100 -2.004919 -3.344852
  H 3.579052 -0.821450 -5.999117
  H 1.962870 -1.411282 -5.625585
  H 3.319551 -2.536615 -5.675506
  H 6.679289 -1.193219 -0.973078
