 26
 0.000000
  C 1.006776 0.120578 0.351581
  C 2.482279 0.132147 0.380955
  C 3.240513 0.606960 1.561992
  C 2.440145 1.091891 2.767619
  C 3.378017 1.540489 3.884441
  C 3.131801 -0.326616 -0.760015
  C 4.513800 -0.396978 -0.936536
  C 5.159651 -0.855913 -2.081638
  C 4.516423 -1.351079 -3.315323
  H 3.438266 -1.356150 -3.326969
  O 6.471701 -0.881671 -2.148755
  H 0.557004 0.488209 1.265450
  H 0.648110 -0.893019 0.166814
  H 0.648327 0.724159 -0.483495
  H 3.900412 1.421138 1.241769
  H 3.900092 -0.202488 1.894620
  H 1.803096 0.291024 3.146701
  H 1.803653 1.932696 2.486767
  H 4.013382 0.720827 4.212552
  H 2.806702 1.885599 4.742570
  H 4.014004 2.358764 3.554121
  H 2.492391 -0.651262 -1.567375
  H 5.145823 -0.069330 -0.121640
  H 4.887121 -2.359929 -3.503274
  H 4.886657 -0.751662 -4.148442
  H 6.929909 -0.560960 -1.349564
 26
 5.219733
  C 1.055297 0.100306 0.299473
  C 2.531777 0.124243 0.361404
  C 3.248464 0.611148 1.573285
  C 2.416289 1.088804 2.759724
  C 3.321729 1.546176 3.899618
  C 3.235285 -0.308899 -0.715248
  C 4.603864 -0.396116 -0.933244
  C 5.185555 -0.863034 -2.099206
  C 4.448339 -1.339565 -3.284360
  H 3.373073 -1.298178 -3.177413
  O 6.485447 -0.913492 -2.231466
  H 0.585350 0.464529 1.204260
  H 0.707319 -0.916408 0.106699
  H 0.708458 0.700996 -0.543630
  H 3.909893 1.430154 1.269073
  H 3.908797 -0.191244 1.921025
  H 1.778261 0.281643 3.123691
  H 1.779728 1.924279 2.463385
  H 3.956480 0.732384 4.243140
  H 2.726351 1.885893 4.743526
  H 3.958006 2.370317 3.584751
  H 2.481876 -0.582114 -1.395472
  H 5.266247 -0.077450 -0.140040
  H 4.760095 -2.361473 -3.502866
  H 4.757835 -0.751215 -4.148800
  H 6.991229 -0.600960 -1.458025
 26
 15.173791
  C 1.112380 0.094872 0.284528
  C 2.576119 0.128070 0.368050
  C 3.246144 0.622439 1.600561
  C 2.380781 1.091330 2.767611
  C 3.252939 1.556803 3.928584
  C 3.316234 -0.305140 -0.711350
  C 4.673505 -0.406128 -0.964167
  C 5.212238 -0.881363 -2.145822
  C 4.409600 -1.345287 -3.294474
  H 3.351658 -1.271860 -3.109784
  O 6.508748 -0.951398 -2.323554
  H 0.634866 0.456987 1.186395
  H 0.765550 -0.928241 0.092742
  H 0.765972 0.701701 -0.561432
  H 3.914179 1.445855 1.311703
  H 3.913348 -0.172868 1.961205
  H 1.742874 0.277619 3.115923
  H 1.743934 1.920755 2.456425
  H 3.887539 0.749127 4.286516
  H 2.633976 1.889967 4.757924
  H 3.888333 2.387242 3.629053
  H 2.431462 -0.516436 -1.237840
  H 5.356822 -0.090995 -0.180616
  H 4.677066 -2.374652 -3.525651
  H 4.675671 -0.763666 -4.174905
  H 7.046018 -0.644662 -1.570896
 26
 29.393493
  C 1.149139 0.094484 0.285535
  C 2.600570 0.130045 0.372093
  C 3.233709 0.629740 1.617084
  C 2.350891 1.091535 2.768803
  C 3.202540 1.562738 3.942800
  C 3.377830 -0.303904 -0.710267
  C 4.728331 -0.414834 -0.988236
  C 5.230809 -0.895222 -2.180110
  C 4.384680 -1.344540 -3.294936
  H 3.339642 -1.251016 -3.064748
  O 6.515966 -0.981849 -2.393705
  H 0.673750 0.456350 1.187991
  H 0.801588 -0.924957 0.098017
  H 0.800446 0.701024 -0.554609
  H 3.900138 1.456098 1.338129
  H 3.900516 -0.160163 1.986419
  H 1.713681 0.272940 3.108088
  H 1.713257 1.917407 2.448389
  H 3.837360 0.759282 4.309649
  H 2.569675 1.891391 4.762731
  H 3.836642 2.397377 3.652543
  H 2.403758 -0.462612 -1.104535
  H 5.427212 -0.105331 -0.220257
  H 4.624926 -2.376951 -3.534765
  H 4.626251 -0.767831 -4.183586
  H 7.081706 -0.681923 -1.652800
 26
 44.326876
  C 1.139705 0.088134 0.270303
  C 2.611801 0.126101 0.361621
  C 3.229527 0.634681 1.628508
  C 2.337873 1.095059 2.777926
  C 3.182407 1.568527 3.957109
  C 3.412580 -0.304983 -0.713926
  C 4.752662 -0.414308 -0.987721
  C 5.240343 -0.899220 -2.189703
  C 4.370655 -1.345825 -3.298781
  H 3.329003 -1.244507 -3.050369
  O 6.529251 -0.993612 -2.420640
  H 0.666415 0.451702 1.177331
  H 0.783197 -0.934360 0.088288
  H 0.781362 0.700272 -0.567937
  H 3.898018 1.463970 1.353341
  H 3.898992 -0.154221 2.002498
  H 1.700669 0.274642 3.115254
  H 1.699484 1.920462 2.455202
  H 3.817487 0.766687 4.326894
  H 2.544426 1.895520 4.773983
  H 3.816032 2.404601 3.670177
  H 2.410913 -0.419120 -0.996742
  H 5.463537 -0.109352 -0.231423
  H 4.600286 -2.381588 -3.542622
  H 4.602206 -0.769581 -4.192559
  H 7.091913 -0.701894 -1.698208
 26
 57.780658
  C 1.090337 0.088608 0.271599
  C 2.576209 0.123936 0.356293
  C 3.213052 0.630179 1.617160
  C 2.341696 1.093556 2.774652
  C 3.206276 1.562108 3.941021
  C 3.399644 -0.302936 -0.709086
  C 4.744750 -0.408784 -0.974327
  C 5.247568 -0.896924 -2.182731
  C 4.393539 -1.344193 -3.294743
  H 3.338061 -1.245441 -3.053726
  O 6.535577 -0.988079 -2.404885
  H 0.625265 0.450362 1.173820
  H 0.731597 -0.924617 0.093923
  H 0.729881 0.696901 -0.557216
  H 3.879215 1.450700 1.337226
  H 3.880451 -0.155309 1.981481
  H 1.706144 0.277830 3.120779
  H 1.704560 1.921200 2.461764
  H 3.842544 0.756441 4.301545
  H 2.581300 1.892850 4.768003
  H 3.840679 2.395160 3.644666
  H 2.349638 -0.386615 -0.915254
  H 5.458747 -0.099789 -0.209790
  H 4.629944 -2.379417 -3.536031
  H 4.632598 -0.766142 -4.186452
  H 7.101863 -0.689862 -1.666288
 26
 69.422628
  C 1.072251 0.092384 0.279190
  C 2.557071 0.119893 0.344438
  C 3.204399 0.629526 1.615120
  C 2.339388 1.094393 2.778895
  C 3.210637 1.560422 3.939512
  C 3.382378 -0.313128 -0.739893
  C 4.733519 -0.406875 -0.978108
  C 5.252300 -0.894005 -2.176160
  C 4.404961 -1.348117 -3.300787
  H 3.355711 -1.250722 -3.066493
  O 6.540459 -0.980051 -2.381744
  H 0.624635 0.459044 1.194532
  H 0.700687 -0.924836 0.106905
  H 0.698749 0.707636 -0.548149
  H 3.873080 1.452498 1.332172
  H 3.875268 -0.159691 1.978369
  H 1.704605 0.279363 3.129124
  H 1.702046 1.924320 2.470376
  H 3.846984 0.754140 4.295739
  H 2.591946 1.891321 4.768958
  H 3.844059 2.391676 3.640293
  H 2.315563 -0.362373 -0.857027
  H 5.434379 -0.094403 -0.213683
  H 4.644827 -2.384410 -3.539199
  H 4.648629 -0.771004 -4.192689
  H 7.093857 -0.679593 -1.636984
 26
 78.911193
  C 1.039136 0.105092 0.298958
  C 2.535152 0.115533 0.332490
  C 3.196832 0.614642 1.584295
  C 2.345765 1.082914 2.753867
  C 3.235892 1.546542 3.913750
  C 3.345649 -0.321100 -0.766442
  C 4.699189 -0.397569 -0.965624
  C 5.247616 -0.883653 -2.151998
  C 4.429841 -1.348420 -3.283336
  H 3.363470 -1.258752 -3.060308
  O 6.544502 -0.955011 -2.334490
  H 0.617888 0.481014 1.237514
  H 0.649144 -0.911018 0.135364
  H 0.650903 0.728407 -0.520859
  H 3.864144 1.431531 1.296280
  H 3.863263 -0.175467 1.941199
  H 1.704987 0.265034 3.111659
  H 1.705869 1.922305 2.448545
  H 3.875155 0.731409 4.266599
  H 2.622573 1.882814 4.754242
  H 3.875774 2.380240 3.607181
  H 2.276862 -0.340964 -0.807158
  H 5.390119 -0.072079 -0.184692
  H 4.684041 -2.378169 -3.512889
  H 4.681702 -0.774432 -4.169538
  H 7.077762 -0.644494 -1.583151
 26
 84.324027
  C 0.986921 0.207104 0.273156
  C 2.497447 0.148026 0.306800
  C 3.190715 0.575946 1.583531
  C 2.355372 1.046631 2.771929
  C 3.261926 1.446277 3.927872
  C 3.311962 -0.259202 -0.801585
  C 4.667561 -0.252350 -1.018776
  C 5.245210 -0.838821 -2.146195
  C 4.463678 -1.512274 -3.195564
  H 3.416317 -1.491707 -2.973122
  O 6.541346 -0.823233 -2.347088
  H 0.586678 0.561501 1.213317
  H 0.565307 -0.780444 0.082516
  H 0.620248 0.866072 -0.515470
  H 3.884844 1.377508 1.296760
  H 3.831403 -0.245802 1.930831
  H 1.693171 0.252205 3.113195
  H 1.751485 1.908950 2.493040
  H 3.865669 0.609149 4.254191
  H 2.671213 1.782220 4.770745
  H 3.922881 2.253904 3.640054
  H 2.219821 -0.252600 -0.811235
  H 5.331154 0.233838 -0.308221
  H 4.807824 -2.538711 -3.294017
  H 4.651116 -1.032466 -4.154414
  H 7.059143 -0.375938 -1.646630
 26
 88.390001
  C 0.980111 0.239463 0.257648
  C 2.493686 0.156847 0.288572
  C 3.194306 0.560117 1.589892
  C 2.345636 1.022554 2.768303
  C 3.249980 1.409284 3.940567
  C 3.337178 -0.202969 -0.774630
  C 4.687369 -0.197106 -1.037264
  C 5.250347 -0.821162 -2.138792
  C 4.451308 -1.564735 -3.147079
  H 3.391666 -1.558025 -2.892504
  O 6.542192 -0.792035 -2.374529
  H 0.594735 0.578301 1.208770
  H 0.550782 -0.745203 0.056918
  H 0.612830 0.919746 -0.513219
  H 3.887483 1.356403 1.301705
  H 3.822740 -0.262855 1.944260
  H 1.677210 0.228228 3.097991
  H 1.748803 1.891055 2.494101
  H 3.851989 0.559209 4.267474
  H 2.647996 1.743466 4.786506
  H 3.922744 2.222723 3.662168
  H 2.218257 -0.215766 -0.795248
  H 5.345318 0.347273 -0.370933
  H 4.818907 -2.592534 -3.201703
  H 4.605976 -1.131237 -4.139840
  H 7.062505 -0.307381 -1.707937
 26
 88.216767
  C 1.010419 0.302720 0.215181
  C 2.534965 0.197720 0.280020
  C 3.208350 0.556001 1.626297
  C 2.311813 0.984795 2.789334
  C 3.178488 1.324859 3.999831
  C 3.428528 -0.068716 -0.742605
  C 4.748566 -0.071209 -1.123858
  C 5.249394 -0.806614 -2.178586
  C 4.415270 -1.698850 -3.021273
  H 3.378167 -1.706012 -2.689461
  O 6.519721 -0.756065 -2.531088
  H 0.618527 0.608876 1.178971
  H 0.567775 -0.662209 -0.024834
  H 0.674066 1.027792 -0.526134
  H 3.902565 1.364643 1.390498
  H 3.815878 -0.289765 1.962506
  H 1.632997 0.185263 3.069655
  H 1.734542 1.865215 2.524818
  H 3.761253 0.462925 4.316258
  H 2.551917 1.634409 4.833058
  H 3.862733 2.138256 3.771355
  H 2.270823 -0.139307 -0.794322
  H 5.425422 0.592132 -0.587687
  H 4.827656 -2.707367 -2.988508
  H 4.471503 -1.377526 -4.062760
  H 7.064178 -0.171811 -1.975818
 26
 90.066280
  C 0.988250 0.373458 0.203769
  C 2.518191 0.215166 0.263337
  C 3.195466 0.529186 1.629464
  C 2.311155 0.950992 2.789385
  C 3.184243 1.237380 4.008850
  C 3.417215 -0.011348 -0.754112
  C 4.721488 0.015861 -1.181410
  C 5.243704 -0.785166 -2.175212
  C 4.448087 -1.802715 -2.901183
  H 3.430548 -1.838272 -2.540788
  O 6.501796 -0.695093 -2.569189
  H 0.616570 0.666675 1.176286
  H 0.506753 -0.570994 -0.057257
  H 0.678292 1.133494 -0.515270
  H 3.910976 1.327487 1.417463
  H 3.773690 -0.343580 1.943789
  H 1.604094 0.157891 3.051389
  H 1.755758 1.861972 2.543203
  H 3.741048 0.352725 4.305025
  H 2.565200 1.544550 4.846738
  H 3.891796 2.035436 3.800872
  H 2.228901 -0.088600 -0.789878
  H 5.363201 0.770179 -0.727084
  H 4.918501 -2.776334 -2.786391
  H 4.459560 -1.580446 -3.964421
  H 7.017295 -0.020261 -2.096753
 26
 91.996100
  C 0.961097 0.414112 0.209641
  C 2.497058 0.225048 0.257135
  C 3.185742 0.504922 1.618795
  C 2.313807 0.918383 2.784431
  C 3.194310 1.169320 4.006880
  C 3.393173 0.026196 -0.764885
  C 4.685119 0.073193 -1.214030
  C 5.231618 -0.770836 -2.162215
  C 4.479532 -1.865129 -2.798843
  H 3.471327 -1.920807 -2.420200
  O 6.482547 -0.654649 -2.581630
  H 0.603414 0.696389 1.190982
  H 0.454652 -0.515032 -0.065853
  H 0.665139 1.194418 -0.492596
  H 3.920405 1.302802 1.418678
  H 3.753410 -0.389058 1.918970
  H 1.598851 0.135071 3.031554
  H 1.774548 1.839144 2.555401
  H 3.737188 0.272448 4.285868
  H 2.581806 1.471813 4.853332
  H 3.913241 1.958284 3.811730
  H 2.195555 -0.056266 -0.772937
  H 5.295536 0.877720 -0.822957
  H 4.995276 -2.807353 -2.623408
  H 4.467030 -1.716873 -3.878309
  H 6.973377 0.075892 -2.165682
 26
 93.284564
  C 0.942847 0.439893 0.211447
  C 2.474080 0.230898 0.245536
  C 3.181421 0.479545 1.607064
  C 2.315758 0.886293 2.800996
  C 3.206773 1.103483 4.019277
  C 3.374379 0.066306 -0.788110
  C 4.654747 0.136545 -1.259845
  C 5.223711 -0.747549 -2.153342
  C 4.507371 -1.934509 -2.698785
  H 3.507020 -2.007877 -2.301099
  O 6.463893 -0.607650 -2.594419
  H 0.598905 0.707145 1.201395
  H 0.422544 -0.471837 -0.077465
  H 0.655536 1.238151 -0.473150
  H 3.910163 1.254346 1.420786
  H 3.731885 -0.413513 1.879987
  H 1.586187 0.099658 3.042472
  H 1.784036 1.823128 2.593722
  H 3.740186 0.194856 4.277493
  H 2.608431 1.396171 4.870613
  H 3.934005 1.886884 3.833187
  H 2.163874 -0.034329 -0.769336
  H 5.240329 0.994827 -0.929636
  H 5.064478 -2.831088 -2.463330
  H 4.473472 -1.873101 -3.774026
  H 6.922990 0.168939 -2.237294
