 19
 0.000000
  C -2.578179 0.792899 2.534984
  C -2.583261 -0.629961 2.066185
  C -3.962662 -1.151533 1.727362
  C -1.705522 -0.995605 0.797740
  C -1.109687 0.162867 0.090572
  O -1.599792 -2.132419 0.477131
  H -3.153979 0.845343 3.462599
  H -3.069817 1.468014 1.837214
  H -1.577356 1.145433 2.770541
  H -2.104667 -1.261430 2.826558
  H -4.432733 -0.590731 0.919380
  H -4.602853 -1.026184 2.602667
  H -3.930975 -2.201509 1.447178
  H -1.280029 1.119903 0.562088
  H -1.513877 0.162760 -0.923849
  H -0.033980 -0.030024 0.023712
  O 2.333589 0.004134 0.019089
  H 3.018416 0.671867 0.075899
  H 2.777626 -0.836035 -0.111998
 19
 -1.264657
  C -2.447102 0.769737 2.531586
  C -2.531059 -0.647801 2.057561
  C -3.925831 -1.096852 1.692106
  C -1.657616 -1.033571 0.772524
  C -1.107152 0.115060 0.035249
  O -1.533308 -2.180827 0.499223
  H -2.967733 0.826934 3.490933
  H -2.952121 1.468720 1.870082
  H -1.424136 1.081483 2.721733
  H -2.067859 -1.317513 2.794417
  H -4.363030 -0.483787 0.905098
  H -4.563975 -0.968604 2.568125
  H -3.949224 -2.139708 1.388129
  H -1.367040 1.087549 0.427651
  H -1.425299 0.015534 -1.003510
  H -0.015198 -0.007447 0.048857
  O 2.024722 0.041329 0.165736
  H 2.651531 0.770383 0.170898
  H 2.519272 -0.776319 0.058191
 19
 -2.348569
  C -2.218961 0.687801 2.520870
  C -2.475974 -0.700928 2.018467
  C -3.917840 -0.982396 1.667282
  C -1.663156 -1.126185 0.709282
  C -1.143420 -0.001123 -0.067950
  O -1.559086 -2.284435 0.464563
  H -2.668095 0.764387 3.513826
  H -2.684188 1.455866 1.909456
  H -1.157734 0.886352 2.646765
  H -2.088800 -1.434654 2.736177
  H -4.302825 -0.283114 0.927147
  H -4.517174 -0.849293 2.569606
  H -4.058162 -1.999323 1.309816
  H -1.522476 0.973333 0.201618
  H -1.276286 -0.221044 -1.127061
  H -0.044416 0.002378 0.117189
  O 1.715653 0.195691 0.473980
  H 2.193020 1.004383 0.263919
  H 2.296056 -0.557140 0.325435
 19
 2.195886
  C -2.175680 0.698723 2.490886
  C -2.439652 -0.698991 1.995284
  C -3.898800 -0.958620 1.680518
  C -1.606280 -1.131015 0.722152
  C -1.087276 -0.051673 -0.071469
  O -1.519882 -2.306848 0.490600
  H -2.664314 0.799671 3.459649
  H -2.598240 1.460142 1.840975
  H -1.114658 0.879460 2.642627
  H -2.094911 -1.421282 2.746367
  H -4.278116 -0.256849 0.939086
  H -4.484241 -0.833795 2.592353
  H -4.049880 -1.973019 1.316544
  H -1.409094 0.950062 0.167461
  H -1.066106 -0.296792 -1.131424
  H 0.105058 -0.023735 0.230185
  O 1.458375 0.216392 0.546824
  H 1.812831 1.024161 0.146499
  H 2.030180 -0.536736 0.357443
 19
 6.789393
  C -2.130847 0.658411 2.494422
  C -2.428941 -0.729815 1.975305
  C -3.905360 -0.939233 1.669539
  C -1.613613 -1.138443 0.710002
  C -1.124207 -0.081145 -0.099183
  O -1.486806 -2.328428 0.466458
  H -2.590461 0.750335 3.480739
  H -2.562593 1.431707 1.865827
  H -1.063534 0.821450 2.614655
  H -2.112469 -1.472305 2.714627
  H -4.261960 -0.212914 0.938180
  H -4.485707 -0.817812 2.576843
  H -4.082744 -1.944361 1.284579
  H -1.454269 0.924199 0.105306
  H -1.025931 -0.340402 -1.147456
  H 0.299664 0.054132 0.254039
  O 1.333371 0.288108 0.594546
  H 1.702322 1.095730 0.184188
  H 1.931697 -0.470745 0.458835
 19
 7.061891
  C -2.228337 0.716605 2.467920
  C -2.428586 -0.699284 1.976978
  C -3.896883 -1.026782 1.699634
  C -1.606271 -1.075020 0.704507
  C -1.119929 0.009874 -0.082372
  O -1.478937 -2.261892 0.436638
  H -2.705673 0.793751 3.436754
  H -2.693652 1.439059 1.819760
  H -1.173054 0.958838 2.601712
  H -2.048987 -1.398749 2.727121
  H -4.316986 -0.345616 0.963189
  H -4.476934 -0.929606 2.620064
  H -4.002293 -2.043024 1.339063
  H -1.398094 1.011277 0.183592
  H -1.065502 -0.211443 -1.142013
  H 0.388460 0.112267 0.208563
  O 1.415279 0.168686 0.570059
  H 1.859545 0.973339 0.245242
  H 1.939967 -0.635634 0.340570
 19
 6.720607
  C -2.330241 0.880662 2.265142
  C -2.408878 -0.621871 2.062306
  C -3.838167 -1.100636 1.825428
  C -1.524385 -1.171927 0.915275
  C -1.162951 -0.275669 -0.113701
  O -1.251280 -2.372127 0.918431
  H -2.838129 1.121992 3.195227
  H -2.834593 1.424803 1.473746
  H -1.298960 1.217428 2.356043
  H -2.015002 -1.128895 2.951748
  H -4.272373 -0.613034 0.952990
  H -4.455339 -0.864354 2.688811
  H -3.863466 -2.176040 1.673533
  H -1.546829 0.728501 -0.107717
  H -0.985381 -0.726957 -1.080908
  H 0.455889 0.139041 0.164495
  O 1.397594 0.372742 0.491740
  H 1.768473 1.128714 -0.010636
  H 2.001888 -0.395977 0.472777
 19
 6.638498
  C -2.203573 0.688163 2.498278
  C -2.435128 -0.717272 1.974292
  C -3.908585 -0.996567 1.695662
  C -1.630605 -1.080715 0.700884
  C -1.177208 -0.015930 -0.107599
  O -1.488536 -2.271805 0.426162
  H -2.673377 0.763956 3.476350
  H -2.661775 1.439710 1.862619
  H -1.145312 0.897872 2.624789
  H -2.078453 -1.443284 2.714696
  H -4.307655 -0.292362 0.969366
  H -4.482886 -0.900297 2.614005
  H -4.042957 -2.006498 1.313691
  H -1.438567 0.996004 0.141045
  H -1.061009 -0.248029 -1.157510
  H 0.482354 0.120000 0.199017
  O 1.442691 0.206239 0.551085
  H 1.876484 1.022388 0.225535
  H 1.976968 -0.588285 0.350975
 19
 7.740827
  C -2.365861 0.759299 2.503864
  C -2.453965 -0.666608 1.989040
  C -3.894165 -1.094203 1.726862
  C -1.628059 -0.982247 0.709449
  C -1.139109 0.112915 -0.029467
  O -1.500197 -2.165942 0.394441
  H -2.898754 0.806787 3.452810
  H -2.844485 1.464086 1.830087
  H -1.338331 1.057309 2.687925
  H -2.018293 -1.344106 2.732621
  H -4.356027 -0.459266 0.974325
  H -4.475466 -1.011485 2.643142
  H -3.934363 -2.125462 1.384909
  H -1.267750 1.115204 0.333771
  H -1.098340 -0.022141 -1.102444
  H 0.614112 0.051510 0.074798
  O 1.576725 0.025416 0.388485
  H 2.073118 0.850077 0.213450
  H 2.048763 -0.793386 0.146854
 19
 7.294393
  C -2.250711 0.699161 2.507251
  C -2.456466 -0.712325 1.972584
  C -3.933230 -1.027298 1.746407
  C -1.695107 -1.031586 0.671941
  C -1.279262 0.042677 -0.135778
  O -1.546982 -2.219658 0.358299
  H -2.702052 0.758401 3.497332
  H -2.740119 1.440522 1.884582
  H -1.196631 0.935281 2.609067
  H -2.061418 -1.433433 2.694975
  H -4.374249 -0.326594 1.038080
  H -4.477155 -0.954396 2.682623
  H -4.053697 -2.037160 1.358517
  H -1.473067 1.057720 0.149442
  H -1.120708 -0.170297 -1.183894
  H 0.724882 0.100604 0.040524
  O 1.594947 0.147481 0.512761
  H 2.080155 0.967634 0.280753
  H 2.133321 -0.657802 0.354801
 19
 7.426488
  C -2.189683 0.656602 2.502389
  C -2.467148 -0.739263 1.957491
  C -3.965087 -0.990817 1.778450
  C -1.762511 -1.058274 0.630475
  C -1.393664 0.006227 -0.210058
  O -1.608873 -2.246701 0.307873
  H -2.588606 0.716163 3.513952
  H -2.683690 1.420896 1.916083
  H -1.126458 0.856942 2.552238
  H -2.082776 -1.485201 2.660470
  H -4.401608 -0.257464 1.103126
  H -4.473168 -0.920913 2.735068
  H -4.138468 -1.985743 1.370553
  H -1.619680 1.022430 0.044802
  H -1.180307 -0.229314 -1.242213
  H 0.870282 0.140013 0.002773
  O 1.672120 0.216007 0.568237
  H 2.168301 1.037723 0.361959
  H 2.238744 -0.581865 0.477501
 19
 7.539456
  C -2.202464 0.659528 2.506892
  C -2.474620 -0.734402 1.957847
  C -3.972422 -0.998261 1.800553
  C -1.788883 -1.039676 0.619002
  C -1.425533 0.032796 -0.213586
  O -1.642020 -2.224992 0.280730
  H -2.589600 0.711185 3.521941
  H -2.710728 1.424256 1.928190
  H -1.137235 0.868936 2.545254
  H -2.073038 -1.480936 2.651072
  H -4.425444 -0.266295 1.135302
  H -4.467159 -0.936893 2.766003
  H -4.142629 -1.992052 1.390502
  H -1.630046 1.049543 0.061051
  H -1.224658 -0.189220 -1.250173
  H 0.964012 0.123851 -0.025859
  O 1.762381 0.180664 0.543810
  H 2.273870 0.997842 0.352313
  H 2.315250 -0.624304 0.444506
 19
 7.659284
  C -2.294907 0.677724 2.507688
  C -2.534414 -0.723843 1.960279
  C -4.028216 -1.039195 1.860126
  C -1.895860 -0.998497 0.596400
  C -1.570088 0.087517 -0.237710
  O -1.743729 -2.178574 0.235299
  H -2.651990 0.714940 3.535492
  H -2.847330 1.424572 1.945379
  H -1.238132 0.925103 2.511704
  H -2.081849 -1.459380 2.636959
  H -4.530674 -0.321537 1.213872
  H -4.488521 -0.996953 2.844620
  H -4.178364 -2.036319 1.452361
  H -1.742503 1.102587 0.061782
  H -1.375984 -0.116995 -1.277348
  H 1.315388 0.099986 -0.117766
  O 2.072119 0.135952 0.504409
  H 2.611770 0.944313 0.355654
  H 2.612319 -0.679828 0.426150
