 23
 0.000000
  C 0.938821 0.054276 0.192107
  C 2.438620 0.048122 0.086273
  C 3.245615 -0.020874 1.371254
  C 2.477278 -0.085568 2.687535
  H 3.182548 -0.131513 3.513769
  C 3.057876 0.111373 -1.110465
  C 2.332757 0.194658 -2.423195
  H 1.252447 0.192790 -2.341853
  C 4.509942 0.122848 -1.204665
  C 5.225441 0.208629 -2.329750
  O 6.583868 0.216735 -2.380207
  H 0.602386 0.026071 1.221628
  H 0.503252 -0.811420 -0.302755
  H 0.524457 0.957366 -0.255746
  H 3.897216 0.857777 1.416152
  H 3.889936 -0.905011 1.325958
  H 1.846555 -0.971139 2.732491
  H 1.854626 0.796240 2.824479
  H 2.626590 -0.647754 -3.050165
  H 2.632145 1.106168 -2.941292
  H 5.068066 0.054977 -0.280787
  H 4.815941 0.281557 -3.324117
  H 6.941203 0.151112 -1.485087
 23
 -0.318676
  C 0.950178 -0.027148 0.173202
  C 2.452185 0.017672 0.088858
  C 3.246750 -0.024855 1.380740
  C 2.455052 -0.008825 2.683899
  H 3.150968 0.025456 3.520531
  C 3.080693 0.106213 -1.097080
  C 2.341162 0.224630 -2.403520
  H 1.267154 0.260256 -2.267108
  C 4.530065 0.100464 -1.203418
  C 5.227752 0.207713 -2.337099
  O 6.573794 0.185541 -2.414545
  H 0.615667 -0.345676 1.150285
  H 0.542450 -0.723225 -0.555310
  H 0.523557 0.957324 -0.021781
  H 3.917483 0.839656 1.394554
  H 3.873556 -0.922430 1.379664
  H 1.848934 -0.904669 2.797327
  H 1.813626 0.866997 2.744312
  H 2.581406 -0.618635 -3.050412
  H 2.645055 1.138049 -2.913157
  H 5.095341 -0.015977 -0.284784
  H 4.796008 0.324419 -3.315264
  H 6.946519 0.079241 -1.529589
 23
 0.103205
  C 0.963277 -0.131269 0.184442
  C 2.455251 0.027716 0.096292
  C 3.244434 0.038462 1.390393
  C 2.428588 0.071337 2.678710
  H 3.103705 0.158968 3.528118
  C 3.077443 0.103887 -1.096220
  C 2.343278 0.300045 -2.397108
  H 1.272768 0.395786 -2.260828
  C 4.525887 0.067982 -1.213789
  C 5.223838 0.181247 -2.345359
  O 6.577307 0.100606 -2.430205
  H 0.696274 -0.728531 1.050999
  H 0.598052 -0.657214 -0.693222
  H 0.455527 0.829466 0.268137
  H 3.889759 0.922348 1.381665
  H 3.898768 -0.839122 1.425629
  H 1.848783 -0.838797 2.810787
  H 1.754381 0.924075 2.692857
  H 2.536135 -0.526969 -3.079607
  H 2.700133 1.215118 -2.867220
  H 5.087040 -0.104791 -0.304329
  H 4.793919 0.352015 -3.318636
  H 6.948036 -0.054694 -1.551896
 23
 1.920301
  C 0.990328 -0.247862 0.189800
  C 2.462826 0.034148 0.103496
  C 3.239021 0.122097 1.400120
  C 2.394232 0.148054 2.669687
  H 3.041794 0.291076 3.532798
  C 3.077745 0.093893 -1.094440
  C 2.349921 0.395470 -2.380360
  H 1.286964 0.547538 -2.232512
  C 4.523628 0.014074 -1.225225
  C 5.222415 0.143537 -2.355694
  O 6.569019 -0.011026 -2.454810
  H 0.831865 -1.079353 0.876267
  H 0.642765 -0.582493 -0.783001
  H 0.404770 0.597331 0.544946
  H 3.837761 1.037695 1.368338
  H 3.940120 -0.716535 1.475148
  H 1.853630 -0.784666 2.808829
  H 1.678182 0.965534 2.644675
  H 2.491753 -0.394908 -3.116785
  H 2.759691 1.316847 -2.791308
  H 5.079065 -0.223322 -0.325777
  H 4.796723 0.377227 -3.317658
  H 6.932846 -0.239420 -1.589811
 23
 6.706519
  C 1.026088 -0.342748 0.175866
  C 2.475610 0.042962 0.114590
  C 3.214872 0.263816 1.410423
  C 2.363853 0.157694 2.671544
  H 2.979178 0.367147 3.545435
  C 3.085067 0.091291 -1.091622
  C 2.365578 0.530291 -2.345716
  H 1.322923 0.769409 -2.158714
  C 4.525155 -0.040755 -1.235173
  C 5.215223 0.040764 -2.375092
  O 6.548043 -0.186740 -2.490555
  H 0.971072 -1.302510 0.698410
  H 0.691114 -0.553587 -0.835176
  H 0.378926 0.357710 0.692629
  H 3.663846 1.259727 1.366319
  H 4.041914 -0.448488 1.504134
  H 1.942425 -0.839953 2.782253
  H 1.549187 0.880025 2.654101
  H 2.411236 -0.220843 -3.136880
  H 2.857426 1.430555 -2.706716
  H 5.069366 -0.352394 -0.350015
  H 4.789565 0.295200 -3.328968
  H 6.914747 -0.396713 -1.625087
 23
 17.985650
  C 1.084890 -0.529109 0.145824
  C 2.508253 -0.050793 0.149091
  C 3.222153 0.299269 1.423053
  C 2.317413 0.319749 2.651035
  H 2.910577 0.493821 3.548041
  C 3.071095 -0.004211 -1.084916
  C 2.359093 0.661095 -2.237405
  H 1.343205 0.940335 -1.978919
  C 4.502666 -0.167259 -1.271108
  C 5.190322 0.038770 -2.394565
  O 6.512104 -0.227863 -2.555521
  H 1.075382 -1.551887 0.547272
  H 0.915892 -0.748960 -0.913754
  H 0.361073 0.059552 0.695367
  H 3.694165 1.277855 1.290968
  H 4.030030 -0.419269 1.608309
  H 1.793409 -0.626958 2.759816
  H 1.580008 1.116595 2.576309
  H 2.337273 0.051545 -3.143166
  H 2.913206 1.570845 -2.461472
  H 5.042565 -0.576853 -0.422180
  H 4.774887 0.474639 -3.288789
  H 6.871157 -0.594880 -1.730679
 23
 32.961075
  C 1.134654 -0.617680 0.107048
  C 2.539909 -0.062390 0.198982
  C 3.201974 0.367265 1.473476
  C 2.264200 0.357306 2.679795
  H 2.781325 0.734013 3.568515
  C 3.092848 -0.038111 -1.050249
  C 2.401570 0.779852 -2.133672
  H 1.370874 1.001271 -1.876554
  C 4.509219 -0.234571 -1.309557
  C 5.165366 0.017562 -2.445501
  O 6.462057 -0.316810 -2.671964
  H 1.132888 -1.672109 0.405055
  H 1.124674 -0.795608 -0.992618
  H 0.344494 -0.101340 0.619902
  H 3.596033 1.369461 1.317217
  H 4.067948 -0.272387 1.698492
  H 1.912117 -0.646803 2.887088
  H 1.396124 0.990656 2.492003
  H 2.401659 0.297253 -3.114311
  H 2.945406 1.719596 -2.212998
  H 5.090566 -0.631474 -0.479836
  H 4.703610 0.384160 -3.354077
  H 6.798242 -0.815622 -1.927365
 23
 56.591226
  C 1.185922 -0.743619 0.085752
  C 2.490935 0.024251 0.189537
  C 3.150504 0.535115 1.431269
  C 2.299207 0.360809 2.683695
  H 2.799842 0.804668 3.543873
  C 3.016314 -0.000471 -1.093596
  C 2.404817 0.913551 -2.120632
  H 1.397129 1.190081 -1.838788
  C 4.428327 -0.268863 -1.294471
  C 5.129365 -0.092605 -2.427306
  O 6.405929 -0.518693 -2.631347
  H 1.291300 -1.832597 0.220685
  H 1.359388 -0.861831 -1.037535
  H 0.355478 -0.372060 0.676365
  H 3.418560 1.588616 1.295109
  H 4.108269 0.006520 1.580608
  H 2.128948 -0.690315 2.889271
  H 1.331437 0.845420 2.557134
  H 2.350883 0.465205 -3.111000
  H 3.017024 1.813324 -2.170164
  H 4.933294 -0.750124 -0.455009
  H 4.735342 0.359173 -3.308664
  H 6.740232 -0.943937 -1.821589
 23
 78.169896
  C 1.245890 -0.770521 0.155483
  C 2.457249 -0.044326 0.236480
  C 3.111280 0.564617 1.431026
  C 2.290119 0.433302 2.707567
  H 2.813176 0.893362 3.543218
  C 2.982142 -0.072893 -1.104788
  C 2.391373 0.932954 -2.094563
  H 1.376242 1.207111 -1.815402
  C 4.396431 -0.374565 -1.318653
  C 5.106394 -0.121408 -2.418922
  O 6.399232 -0.497515 -2.619794
  H 1.286136 -1.847785 0.071498
  H 1.736578 -0.845738 -1.225757
  H 0.384297 -0.471142 0.757577
  H 3.326495 1.621609 1.237683
  H 4.082323 0.074808 1.569623
  H 2.115318 -0.614646 2.941334
  H 1.327927 0.926335 2.594822
  H 2.380772 0.540788 -3.109612
  H 3.003558 1.837529 -2.086921
  H 4.874236 -0.939474 -0.522913
  H 4.727650 0.415633 -3.273487
  H 6.716872 -0.982065 -1.847324
 23
 61.551939
  C 1.260704 -0.870048 0.235706
  C 2.372974 -0.087204 0.243971
  C 3.035149 0.603308 1.387552
  C 2.269167 0.498662 2.702766
  H 2.836636 0.968448 3.508966
  C 2.918363 -0.125578 -1.163064
  C 2.387425 1.010522 -2.062905
  H 1.367023 1.277354 -1.787349
  C 4.351352 -0.452129 -1.339961
  C 5.098296 -0.161223 -2.396304
  O 6.373188 -0.593769 -2.600751
  H 1.381019 -1.928194 0.069210
  H 1.977031 -0.808909 -1.390736
  H 0.454140 -0.719769 0.942774
  H 3.216150 1.661345 1.152265
  H 4.015255 0.137864 1.499746
  H 2.104377 -0.549237 2.964515
  H 1.303357 0.993052 2.626639
  H 2.412791 0.707901 -3.109998
  H 3.014141 1.904854 -1.957952
  H 4.798098 -1.031625 -0.536919
  H 4.761908 0.432955 -3.223381
  H 6.664526 -1.101487 -1.842656
 23
 42.426436
  C 1.210981 -0.839408 0.300737
  C 2.337037 -0.106733 0.226039
  C 3.057845 0.585202 1.336876
  C 2.347948 0.515351 2.682183
  H 2.923452 1.042289 3.440005
  C 2.906424 -0.155756 -1.182961
  C 2.384250 0.989155 -2.075256
  H 1.350378 1.213909 -1.826634
  C 4.342465 -0.480583 -1.335723
  C 5.118969 -0.131134 -2.352043
  O 6.427576 -0.472116 -2.492460
  H 1.172756 -1.866128 -0.018844
  H 2.085348 -0.874819 -1.467713
  H 0.403253 -0.622847 0.996021
  H 3.240885 1.636918 1.082553
  H 4.041024 0.111206 1.403589
  H 2.220541 -0.518844 2.993260
  H 1.366289 0.977374 2.618372
  H 2.444513 0.701166 -3.119529
  H 2.969945 1.899063 -1.932997
  H 4.755744 -1.123764 -0.565285
  H 4.796398 0.488778 -3.173222
  H 6.693947 -1.040716 -1.758638
 23
 23.672914
  C 1.180161 -0.894015 0.354419
  C 2.288307 -0.162379 0.191583
  C 3.031027 0.595828 1.248636
  C 2.372833 0.583236 2.621688
  H 2.982938 1.133034 3.334997
  C 2.868197 -0.221014 -1.213155
  C 2.400794 1.019241 -1.996968
  H 1.361180 1.232717 -1.762578
  C 4.323643 -0.513913 -1.324906
  C 5.125141 -0.137300 -2.325545
  O 6.447068 -0.443313 -2.432525
  H 1.062371 -1.871468 -0.081408
  H 2.171265 -0.985992 -1.601464
  H 0.468982 -0.715441 1.151543
  H 3.199800 1.633658 0.939367
  H 4.016194 0.124635 1.308383
  H 2.254626 -0.437158 2.978848
  H 1.391839 1.049609 2.580616
  H 2.490033 0.839233 -3.064246
  H 2.998384 1.894234 -1.744799
  H 4.725250 -1.160830 -0.550642
  H 4.810065 0.483999 -3.149491
  H 6.705123 -1.025145 -1.705409
 23
 11.336465
  C 1.193648 -0.961089 0.424094
  C 2.270965 -0.232546 0.165784
  C 3.025983 0.594497 1.165518
  C 2.411978 0.650057 2.557923
  H 3.027184 1.265151 3.211115
  C 2.827386 -0.272348 -1.247053
  C 2.390475 1.004771 -1.980182
  H 1.336074 1.191456 -1.792273
  C 4.290432 -0.560158 -1.331440
  C 5.137652 -0.047888 -2.210072
  O 6.462262 -0.345092 -2.288962
  H 0.919265 -1.826167 -0.155003
  H 2.215758 -1.064613 -1.702587
  H 0.608389 -0.834071 1.321581
  H 3.156920 1.613765 0.788747
  H 4.025971 0.155098 1.229031
  H 2.342392 -0.346688 2.987023
  H 1.415150 1.082642 2.522005
  H 2.538322 0.893494 -3.050837
  H 2.961270 1.866420 -1.640259
  H 4.657408 -1.287377 -0.614198
  H 4.864934 0.676504 -2.960721
  H 6.684560 -1.014383 -1.628556
 23
 7.818581
  C 1.156706 -0.956532 0.461841
  C 2.266068 -0.303996 0.144896
  C 3.034635 0.581904 1.084983
  C 2.495045 0.667382 2.505038
  H 3.112338 1.344208 3.092798
  C 2.770613 -0.329776 -1.287019
  C 2.372379 0.978573 -1.978140
  H 1.312494 1.162926 -1.826264
  C 4.232932 -0.641528 -1.375074
  C 5.150303 0.042572 -2.052274
  O 6.479471 -0.261562 -2.102166
  H 0.718982 -1.717334 -0.161390
  H 2.180258 -1.123654 -1.763326
  H 0.706556 -0.823061 1.431866
  H 3.105994 1.589384 0.667939
  H 4.055237 0.187789 1.116458
  H 2.505330 -0.309875 2.981694
  H 1.477446 1.048295 2.511386
  H 2.562710 0.910688 -3.045211
  H 2.931505 1.819948 -1.579306
  H 4.545279 -1.519757 -0.813686
  H 4.938040 0.900923 -2.671555
  H 6.654059 -1.046082 -1.572811
 23
 4.887428
  C 1.204863 -1.006929 0.505514
  C 2.247816 -0.282733 0.132829
  C 3.029567 0.616007 1.052162
  C 2.533448 0.670328 2.491064
  H 3.150309 1.356712 3.067508
  C 2.729186 -0.312801 -1.307156
  C 2.367205 0.990101 -2.022693
  H 1.304087 1.187048 -1.902340
  C 4.192785 -0.646950 -1.360511
  C 5.140796 0.046587 -1.970269
  O 6.458459 -0.290600 -2.008966
  H 0.679184 -1.636809 -0.193611
  H 2.188010 -1.127322 -1.808868
  H 0.821462 -1.008865 1.510205
  H 3.019802 1.627055 0.635696
  H 4.072729 0.285292 1.043355
  H 2.588032 -0.310700 2.957136
  H 1.504826 1.020598 2.531698
  H 2.585756 0.910158 -3.084789
  H 2.922914 1.830702 -1.616277
  H 4.460098 -1.562405 -0.842350
  H 4.967735 0.963972 -2.509606
  H 6.595312 -1.117009 -1.529050
