 22
 0.000000
  C 0.983304 0.197788 0.557596
  C 2.425656 0.123913 0.357843
  H 3.081194 0.452092 1.154996
  C 2.978276 -0.346387 -0.810325
  C 4.369773 -0.419136 -0.998110
  C 5.051056 -0.869787 -2.111260
  C 4.610432 -1.388359 -3.404025
  C 3.140382 -1.527264 -3.763355
  C 2.983840 -2.091834 -5.173406
  H 6.132727 -0.838310 -2.025149
  H 0.709551 0.590341 1.530526
  H 0.534554 -0.789593 0.419204
  H 0.535374 0.807522 -0.231924
  H 2.312677 -0.666086 -1.594281
  H 4.985955 -0.085425 -0.171891
  H 5.105682 -2.363442 -3.528839
  H 5.111301 -0.773790 -4.167698
  H 2.651179 -0.552370 -3.726113
  H 2.645308 -2.203565 -3.064501
  H 3.445900 -1.439267 -5.910640
  H 1.931524 -2.189636 -5.427188
  H 3.439897 -3.075795 -5.254792
 22
 1.888085
  C 1.021849 0.377769 0.563946
  C 2.383192 -0.121059 0.407096
  H 2.993065 -0.244814 1.293824
  C 2.930077 -0.435351 -0.816839
  C 4.319197 -0.475960 -1.007880
  C 5.024659 -0.748536 -2.157890
  C 4.609480 -1.267689 -3.459326
  C 3.159171 -1.617366 -3.749065
  C 3.020100 -2.224879 -5.141276
  H 6.093363 -0.577012 -2.095697
  H 0.775523 0.593365 1.597791
  H 0.292027 -0.321436 0.149057
  H 0.914199 1.285551 -0.035522
  H 2.264206 -0.585919 -1.652315
  H 4.911023 -0.171899 -0.152793
  H 5.236451 -2.153147 -3.648101
  H 4.973926 -0.558838 -4.218206
  H 2.540620 -0.717735 -3.706716
  H 2.793548 -2.336858 -3.013438
  H 3.360645 -1.530727 -5.907462
  H 1.980577 -2.466780 -5.346529
  H 3.599805 -3.141181 -5.228458
 22
 9.165033
  C 1.106493 0.513598 0.577676
  C 2.311467 -0.295284 0.431934
  H 2.764406 -0.712616 1.323764
  C 2.895636 -0.571248 -0.793440
  C 4.268231 -0.455531 -1.018882
  C 4.976025 -0.684184 -2.175304
  C 4.586501 -1.239778 -3.473992
  C 3.162859 -1.718075 -3.731758
  C 3.038864 -2.292884 -5.140117
  H 6.025204 -0.411315 -2.135037
  H 0.858787 0.700744 1.615761
  H 0.248803 0.053083 0.085758
  H 1.271661 1.458455 0.053591
  H 2.238260 -0.836773 -1.618458
  H 4.838681 -0.051645 -0.191831
  H 5.283042 -2.062585 -3.676125
  H 4.858441 -0.495307 -4.231896
  H 2.465322 -0.884784 -3.644798
  H 2.893813 -2.495351 -3.012649
  H 3.286470 -1.545649 -5.889767
  H 2.020273 -2.630436 -5.324952
  H 3.702531 -3.142774 -5.274033
 22
 21.228971
  C 1.229901 0.643960 0.610100
  C 2.238321 -0.388876 0.434662
  H 2.466790 -1.036116 1.270741
  C 2.889025 -0.637930 -0.788739
  C 4.219728 -0.362084 -1.050149
  C 4.931476 -0.587052 -2.206702
  C 4.566443 -1.187759 -3.494451
  C 3.169600 -1.751948 -3.731462
  C 3.061705 -2.329194 -5.142463
  H 5.962253 -0.247754 -2.183347
  H 0.951551 0.776538 1.648789
  H 0.322912 0.409390 0.040344
  H 1.601992 1.580201 0.181575
  H 2.281203 -1.084232 -1.565689
  H 4.764719 0.128686 -0.250790
  H 5.308571 -1.970032 -3.694869
  H 4.778679 -0.432885 -4.262435
  H 2.421050 -0.960564 -3.629039
  H 2.963667 -2.548707 -3.019142
  H 3.251102 -1.562932 -5.893242
  H 2.069447 -2.727879 -5.313883
  H 3.778062 -3.136097 -5.289727
 22
 24.044344
  C 1.370347 0.736825 0.671114
  C 2.163683 -0.444743 0.390006
  H 2.138488 -1.256768 1.111270
  C 2.900475 -0.678342 -0.790220
  C 4.179419 -0.242867 -1.096221
  C 4.889645 -0.507119 -2.247631
  C 4.537146 -1.170033 -3.510579
  C 3.155978 -1.777126 -3.729395
  C 3.063168 -2.391757 -5.124523
  H 5.914275 -0.154287 -2.240579
  H 1.038773 0.782677 1.703336
  H 0.481914 0.681642 0.029462
  H 1.847725 1.667566 0.359866
  H 2.400435 -1.338071 -1.493549
  H 4.690303 0.327846 -0.332814
  H 5.296463 -1.943341 -3.687245
  H 4.730858 -0.434068 -4.303410
  H 2.388869 -1.005661 -3.643085
  H 2.971750 -2.567176 -2.999603
  H 3.231242 -1.640653 -5.892759
  H 2.078145 -2.823311 -5.285535
  H 3.800974 -3.180962 -5.252035
 22
 11.853431
  C 1.538669 0.816175 0.690824
  C 2.110433 -0.471512 0.330025
  H 1.817003 -1.326838 0.933103
  C 2.897322 -0.738516 -0.779657
  C 4.129213 -0.181354 -1.132539
  C 4.838215 -0.452453 -2.278523
  C 4.494906 -1.154540 -3.518738
  C 3.139131 -1.826120 -3.709359
  C 3.041142 -2.436451 -5.105842
  H 5.844329 -0.047945 -2.301667
  H 1.181417 0.841709 1.715786
  H 0.669611 0.960626 0.040656
  H 2.180207 1.666080 0.458674
  H 2.535839 -1.558717 -1.389250
  H 4.595861 0.461196 -0.401645
  H 5.289472 -1.889243 -3.705016
  H 4.639350 -0.418322 -4.323005
  H 2.336902 -1.094411 -3.592389
  H 3.009490 -2.630607 -2.983336
  H 3.151929 -1.672075 -5.875140
  H 2.072576 -2.915741 -5.244549
  H 3.813027 -3.188154 -5.257858
 22
 4.557319
  C 1.718444 0.876767 0.674307
  C 2.043752 -0.486568 0.276660
  H 1.497612 -1.281589 0.770687
  C 2.882708 -0.839261 -0.756058
  C 4.067051 -0.187875 -1.141065
  C 4.784225 -0.411633 -2.292057
  C 4.455206 -1.126148 -3.526183
  C 3.145120 -1.881908 -3.684359
  C 3.016787 -2.442875 -5.098708
  H 5.752891 0.073184 -2.337195
  H 1.370318 0.930505 1.702258
  H 0.879284 1.205486 0.048896
  H 2.515231 1.587778 0.472247
  H 2.637890 -1.760769 -1.268053
  H 4.484119 0.516789 -0.432742
  H 5.295607 -1.796918 -3.751944
  H 4.527207 -0.374548 -4.327957
  H 2.301935 -1.216729 -3.491090
  H 3.105464 -2.719134 -2.985321
  H 3.031075 -1.645965 -5.838472
  H 2.080140 -2.984329 -5.208059
  H 3.829013 -3.130033 -5.321711
 22
 3.165411
  C 1.808985 0.900705 0.444601
  C 1.991965 -0.516094 0.142295
  H 1.245367 -1.200137 0.523549
  C 2.972298 -1.010442 -0.676201
  C 4.133488 -0.301805 -1.070784
  C 4.819450 -0.411482 -2.251382
  C 4.434233 -1.055234 -3.508207
  C 3.187178 -1.918954 -3.582294
  C 2.888341 -2.329876 -5.020507
  H 5.744015 0.149703 -2.321203
  H 1.449991 1.044267 1.461267
  H 1.018278 1.295699 -0.202962
  H 2.700581 1.484582 0.233737
  H 2.876139 -2.034112 -1.010048
  H 4.551384 0.376931 -0.335971
  H 5.304414 -1.623074 -3.866764
  H 4.356767 -0.249383 -4.255287
  H 2.329454 -1.371689 -3.183279
  H 3.322331 -2.822488 -2.985049
  H 2.719643 -1.459263 -5.650120
  H 1.996019 -2.949197 -5.059682
  H 3.711326 -2.901783 -5.442940
 22
 7.730700
  C 1.845680 0.860087 0.056682
  C 1.999391 -0.595190 0.051517
  H 1.247006 -1.203235 0.532140
  C 3.050001 -1.171199 -0.598168
  C 4.227778 -0.434976 -0.954405
  C 4.867552 -0.416485 -2.155431
  C 4.395097 -0.933196 -3.444729
  C 3.200687 -1.867270 -3.468455
  C 2.757586 -2.175808 -4.893910
  H 5.774225 0.171478 -2.219084
  H 1.366724 1.232313 0.955740
  H 1.242941 1.182290 -0.798762
  H 2.826376 1.292172 -0.159610
  H 3.041375 -2.234943 -0.797673
  H 4.732940 0.040096 -0.121302
  H 5.250043 -1.405813 -3.946244
  H 4.191706 -0.061658 -4.085300
  H 2.366171 -1.413353 -2.925319
  H 3.451004 -2.804511 -2.967403
  H 2.478063 -1.267933 -5.423454
  H 1.896526 -2.838661 -4.888559
  H 3.552744 -2.663725 -5.452604
 22
 15.167880
  C 1.904462 0.841372 -0.177311
  C 1.964233 -0.614124 -0.000191
  H 1.202034 -1.131176 0.557259
  C 3.025346 -1.253579 -0.562467
  C 4.208900 -0.480631 -0.879768
  C 4.857159 -0.412783 -2.071653
  C 4.367475 -0.855233 -3.382885
  C 3.226002 -1.851405 -3.416878
  C 2.726779 -2.091042 -4.836840
  H 5.789299 0.135355 -2.100192
  H 1.392199 1.374397 0.609638
  H 1.507135 1.136069 -1.154058
  H 2.965427 1.087510 -0.371500
  H 3.064930 -2.330198 -0.668006
  H 4.763542 -0.170854 -0.003563
  H 5.222841 -1.251082 -3.942606
  H 4.095712 0.042764 -3.958787
  H 2.395033 -1.480433 -2.804141
  H 3.550486 -2.802843 -2.991413
  H 2.393201 -1.164119 -5.297448
  H 1.888786 -2.781850 -4.834102
  H 3.513585 -2.516232 -5.459915
 22
 30.836825
  C 1.982949 0.814886 -0.195697
  C 1.943912 -0.639704 -0.001228
  H 1.108161 -1.094290 0.531201
  C 2.972951 -1.301942 -0.559436
  C 4.114600 -0.431855 -0.813989
  C 4.768157 -0.329366 -2.039460
  C 4.331116 -0.819581 -3.350723
  C 3.196440 -1.813598 -3.400250
  C 2.777732 -2.095611 -4.844464
  H 5.652502 0.307801 -2.059278
  H 1.569174 1.446522 0.557612
  H 1.829947 1.158594 -1.217139
  H 3.172215 0.798524 -0.482466
  H 2.997785 -2.367320 -0.741994
  H 4.754223 -0.249584 0.037940
  H 5.215634 -1.224787 -3.867088
  H 4.081933 0.066887 -3.949797
  H 2.337734 -1.447947 -2.838925
  H 3.510758 -2.759764 -2.946143
  H 2.428552 -1.176736 -5.325420
  H 1.953333 -2.802352 -4.869889
  H 3.592433 -2.496935 -5.423222
 22
 38.172162
  C 1.863569 0.766924 -0.196869
  C 1.909270 -0.634066 0.015560
  H 1.160028 -1.121491 0.622453
  C 2.981422 -1.281594 -0.502138
  C 4.091771 -0.347688 -0.827244
  C 4.780554 -0.312431 -2.055561
  C 4.352498 -0.826684 -3.351019
  C 3.153653 -1.765539 -3.411322
  C 2.774300 -2.065615 -4.858322
  H 5.694353 0.268043 -2.079569
  H 1.390233 1.395047 0.543134
  H 1.822746 1.168603 -1.199888
  H 3.441095 0.670583 -0.612441
  H 3.095435 -2.348327 -0.564751
  H 4.757707 -0.219611 0.032212
  H 5.215131 -1.297551 -3.839624
  H 4.160441 0.052549 -3.986317
  H 2.295425 -1.320021 -2.906088
  H 3.394728 -2.703829 -2.912218
  H 2.515722 -1.154150 -5.392633
  H 1.916029 -2.731617 -4.895785
  H 3.595541 -2.548121 -5.383741
 22
 35.933668
  C 1.722949 0.743042 -0.178109
  C 1.915582 -0.625742 0.008309
  H 1.204689 -1.181671 0.605471
  C 3.029293 -1.227693 -0.502000
  C 4.137840 -0.297922 -0.838633
  C 4.834794 -0.329704 -2.081639
  C 4.393327 -0.866151 -3.357534
  C 3.143014 -1.737206 -3.408073
  C 2.761231 -2.048506 -4.852237
  H 5.778516 0.199918 -2.113587
  H 1.144296 1.305511 0.536571
  H 1.803643 1.200914 -1.150856
  H 3.601210 0.703481 -0.675909
  H 3.165357 -2.293265 -0.550670
  H 4.834678 -0.219063 0.005747
  H 5.233693 -1.395046 -3.827024
  H 4.256591 0.005229 -4.018264
  H 2.306788 -1.232408 -2.922720
  H 3.326131 -2.675906 -2.886246
  H 2.557561 -1.136959 -5.408643
  H 1.868072 -2.667308 -4.883923
  H 3.559658 -2.586770 -5.358536
 22
 31.869652
  C 1.591129 0.711230 -0.154563
  C 1.920776 -0.615745 0.000719
  H 1.255587 -1.246424 0.580534
  C 3.077952 -1.161433 -0.510388
  C 4.187885 -0.246642 -0.854675
  C 4.898221 -0.355871 -2.100289
  C 4.446506 -0.917863 -3.355644
  C 3.130417 -1.692718 -3.406087
  C 2.754221 -2.019039 -4.844963
  H 5.872860 0.109494 -2.132942
  H 0.883731 1.177278 0.507757
  H 1.828293 1.267947 -1.049347
  H 3.747385 0.773644 -0.735892
  H 3.232476 -2.220170 -0.550747
  H 4.906864 -0.226589 -0.020946
  H 5.256596 -1.522239 -3.791869
  H 4.388215 -0.061120 -4.051164
  H 2.329510 -1.110898 -2.957057
  H 3.228160 -2.625861 -2.854032
  H 2.630719 -1.114627 -5.430866
  H 1.811525 -2.572945 -4.876721
  H 3.520206 -2.631955 -5.318163
 22
 29.480872
  C 1.539538 0.757511 -0.018579
  C 1.900990 -0.550271 0.058687
  H 1.275983 -1.223964 0.633817
  C 3.026836 -1.081510 -0.555029
  C 4.182545 -0.233200 -0.880282
  C 4.902396 -0.361526 -2.123744
  C 4.472872 -0.944125 -3.377867
  C 3.157016 -1.711577 -3.449068
  C 2.817789 -2.062371 -4.895006
  H 5.886550 0.088503 -2.141013
  H 0.761496 1.157335 0.604285
  H 1.924480 1.413384 -0.781047
  H 3.907955 0.825030 -0.697969
  H 3.114119 -2.146985 -0.679253
  H 4.915410 -0.366046 -0.064277
  H 5.288210 -1.549395 -3.802256
  H 4.424793 -0.090461 -4.075512
  H 2.346153 -1.114004 -3.030949
  H 3.235926 -2.635788 -2.879313
  H 2.710011 -1.167340 -5.500566
  H 1.880607 -2.613233 -4.941930
  H 3.592689 -2.682329 -5.336218
