 29
 0.000000
  C 0.963673 0.140806 0.402611
  C 2.439614 0.138312 0.395843
  C 3.230194 0.606366 1.559930
  C 2.460317 1.097714 2.782562
  C 3.419236 1.540278 3.883477
  C 3.053473 -0.326909 -0.761987
  C 4.430655 -0.410390 -0.970638
  C 5.115021 -0.860528 -2.093296
  C 4.626154 -1.383540 -3.397621
  C 3.137849 -1.502314 -3.694294
  H 2.990086 -1.901218 -4.689200
  O 6.436956 -0.853329 -2.075798
  H 0.533313 0.511695 1.325339
  H 0.591085 -0.870567 0.235244
  H 0.590732 0.754791 -0.418158
  H 3.886853 1.416596 1.223568
  H 3.887083 -0.211091 1.877845
  H 1.823353 0.302203 3.173632
  H 1.823214 1.942508 2.514359
  H 4.055004 0.717033 4.202003
  H 2.861847 1.888341 4.749655
  H 4.054858 2.355061 3.543621
  H 2.394639 -0.644062 -1.551087
  H 5.048739 -0.078880 -0.145256
  H 5.085849 -2.370589 -3.521205
  H 5.086104 -0.755526 -4.168948
  H 2.659235 -0.526499 -3.647112
  H 2.659030 -2.175128 -2.986079
  H 6.810945 -0.518532 -1.239226
 29
 0.218966
  C 0.959464 0.524029 0.252409
  C 2.429216 0.391185 0.274100
  C 3.218957 0.614433 1.506554
  C 2.454665 0.942318 2.785480
  C 3.420773 1.122591 3.951843
  C 3.043182 -0.003359 -0.907816
  C 4.421804 -0.065221 -1.114860
  C 5.111619 -0.631241 -2.180068
  C 4.629007 -1.533222 -3.261773
  C 3.155720 -1.903609 -3.361034
  H 3.044897 -2.667207 -4.127843
  O 6.417040 -0.454257 -2.270019
  H 0.546121 0.867355 1.193329
  H 0.505456 -0.435774 -0.000133
  H 0.660603 1.209100 -0.543016
  H 3.927813 1.428974 1.316025
  H 3.833560 -0.272934 1.690345
  H 1.760715 0.135796 3.026892
  H 1.883789 1.863666 2.661035
  H 3.994604 0.215179 4.126059
  H 2.875152 1.354264 4.863021
  H 4.115167 1.937792 3.760312
  H 2.389567 -0.236470 -1.731225
  H 5.043339 0.402665 -0.362783
  H 5.220463 -2.448368 -3.159453
  H 4.962343 -1.091687 -4.208186
  H 2.548639 -1.053491 -3.661382
  H 2.784968 -2.315413 -2.426218
  H 6.800289 0.124434 -1.584382
 29
 2.533437
  C 0.933728 0.624983 0.187322
  C 2.405001 0.509218 0.174561
  C 3.215689 0.618649 1.411514
  C 2.474649 0.840428 2.725211
  C 3.460188 0.920907 3.886022
  C 3.016356 0.242550 -1.038363
  C 4.404680 0.204069 -1.246522
  C 5.118507 -0.549163 -2.162643
  C 4.637111 -1.632824 -3.062221
  C 3.155640 -1.963297 -3.119803
  H 3.019426 -2.828346 -3.764239
  O 6.429160 -0.408061 -2.250033
  H 0.530839 0.850886 1.168935
  H 0.485391 -0.305919 -0.165644
  H 0.616164 1.393396 -0.518834
  H 3.925257 1.443439 1.272507
  H 3.830632 -0.280977 1.509843
  H 1.782676 0.017808 2.910198
  H 1.904126 1.770207 2.686748
  H 4.034198 0.001557 3.973625
  H 2.930415 1.076666 4.822494
  H 4.153283 1.748680 3.752222
  H 2.369282 0.116082 -1.891536
  H 4.998951 0.848863 -0.608543
  H 5.201714 -2.527709 -2.776413
  H 4.995660 -1.385127 -4.067361
  H 2.579998 -1.148099 -3.546316
  H 2.766862 -2.211818 -2.134922
  H 6.802118 0.296372 -1.688154
 29
 6.996355
  C 0.911548 0.749134 0.090330
  C 2.382325 0.615472 0.047259
  C 3.213683 0.579193 1.276661
  C 2.496235 0.681010 2.618382
  C 3.499286 0.629703 3.766979
  C 2.986758 0.476134 -1.181728
  C 4.388914 0.448488 -1.398723
  C 5.123658 -0.456901 -2.129169
  C 4.641484 -1.714032 -2.765998
  C 3.156664 -2.028495 -2.724680
  H 2.992223 -2.998488 -3.186915
  O 6.432162 -0.318564 -2.254289
  H 0.524019 0.844926 1.097014
  H 0.444234 -0.116731 -0.380411
  H 0.600750 1.612941 -0.498343
  H 3.940275 1.398008 1.202260
  H 3.812521 -0.336961 1.274470
  H 1.791871 -0.144672 2.732213
  H 1.941085 1.618667 2.680526
  H 4.058386 -0.303213 3.754632
  H 2.985021 0.700304 4.722297
  H 4.205152 1.454945 3.704606
  H 2.357092 0.465482 -2.057872
  H 4.935220 1.255639 -0.924989
  H 5.209103 -2.530513 -2.306757
  H 4.980334 -1.684499 -3.807133
  H 2.578946 -1.298487 -3.281069
  H 2.791121 -2.075993 -1.702181
  H 6.793024 0.497242 -1.862589
 29
 12.459627
  C 0.913424 0.877358 -0.005492
  C 2.381648 0.709921 -0.071297
  C 3.222458 0.550385 1.145221
  C 2.517049 0.550313 2.496274
  C 3.526073 0.386034 3.628859
  C 2.982410 0.672366 -1.300840
  C 4.398136 0.606482 -1.526444
  C 5.127486 -0.416532 -2.068887
  C 4.616100 -1.757972 -2.472949
  C 3.125029 -2.014781 -2.350940
  H 2.915942 -3.031560 -2.674008
  O 6.438223 -0.315484 -2.235497
  H 0.533925 0.875064 1.008488
  H 0.419774 0.081274 -0.563622
  H 0.624437 1.809140 -0.493006
  H 3.968325 1.355285 1.132256
  H 3.802036 -0.374251 1.058659
  H 1.798332 -0.269604 2.545899
  H 1.977828 1.488241 2.641118
  H 4.068360 -0.552126 3.535055
  H 3.019058 0.385989 4.590549
  H 4.246281 1.201175 3.629530
  H 2.367237 0.795262 -2.181259
  H 4.927319 1.511641 -1.250990
  H 5.176477 -2.500171 -1.895071
  H 4.929592 -1.907076 -3.511732
  H 2.554122 -1.344012 -2.983221
  H 2.788179 -1.914940 -1.322366
  H 6.809432 0.551022 -1.992213
 29
 17.154319
  C 0.958236 1.051832 -0.094778
  C 2.416469 0.804426 -0.161813
  C 3.238352 0.524051 1.049846
  C 2.518172 0.455050 2.388814
  C 3.502938 0.160285 3.515843
  C 3.036566 0.826669 -1.374892
  C 4.456252 0.663275 -1.610649
  C 5.134563 -0.449334 -2.003825
  C 4.550015 -1.805101 -2.234985
  C 3.056545 -1.967012 -2.021448
  H 2.777153 -2.994853 -2.240187
  O 6.443703 -0.428472 -2.233429
  H 0.570904 0.998464 0.914520
  H 0.426265 0.330899 -0.716899
  H 0.727483 2.034611 -0.506607
  H 4.024152 1.284864 1.117911
  H 3.774896 -0.417425 0.879551
  H 1.759935 -0.329919 2.368957
  H 2.021624 1.403630 2.599356
  H 4.001718 -0.792773 3.357234
  H 2.983387 0.114373 4.469344
  H 4.261103 0.937782 3.584880
  H 2.461184 1.109200 -2.251375
  H 5.007943 1.596320 -1.539732
  H 5.098477 -2.499873 -1.590919
  H 4.812237 -2.088295 -3.259026
  H 2.492118 -1.324016 -2.691860
  H 2.773702 -1.759010 -0.994725
  H 6.859901 0.440975 -2.098121
 29
 13.910978
  C 1.034135 1.224280 -0.120094
  C 2.473335 0.890271 -0.197078
  C 3.270325 0.509231 1.001894
  C 2.531183 0.381706 2.327569
  C 3.492389 -0.023738 3.440697
  C 3.104851 0.947978 -1.404065
  C 4.495984 0.677508 -1.662775
  C 5.108667 -0.507790 -1.955261
  C 4.452851 -1.844527 -2.082346
  C 2.957651 -1.930992 -1.834611
  H 2.632983 -2.955526 -2.000149
  O 6.407312 -0.573035 -2.221446
  H 0.635772 1.135827 0.882743
  H 0.464446 0.578269 -0.788631
  H 0.868630 2.243260 -0.469909
  H 4.081689 1.233897 1.129663
  H 3.776303 -0.437458 0.773504
  H 1.743982 -0.370651 2.248900
  H 2.069354 1.333147 2.596827
  H 3.956932 -0.982683 3.223972
  H 2.961151 -0.112809 4.384859
  H 4.277814 0.717992 3.566772
  H 2.566226 1.369357 -2.247978
  H 5.091502 1.582890 -1.759674
  H 4.982972 -2.521693 -1.404616
  H 4.682549 -2.204627 -3.090389
  H 2.409726 -1.294945 -2.526055
  H 2.698069 -1.662021 -0.817238
  H 6.875053 0.276670 -2.148221
 29
 10.922817
  C 1.045751 1.258176 -0.122967
  C 2.481643 0.916672 -0.220071
  C 3.286139 0.516208 0.964024
  C 2.550002 0.324323 2.284944
  C 3.523294 -0.096061 3.382557
  C 3.103839 1.012098 -1.428297
  C 4.469333 0.702584 -1.722119
  C 5.082519 -0.520409 -1.890901
  C 4.426417 -1.868026 -1.916886
  C 2.924307 -1.954407 -1.708991
  H 2.616596 -2.990749 -1.824911
  O 6.383321 -0.611092 -2.161294
  H 0.651590 1.139261 0.878228
  H 0.468717 0.640056 -0.810111
  H 0.885598 2.290222 -0.438032
  H 4.075503 1.261039 1.115586
  H 3.821846 -0.406049 0.708941
  H 1.782043 -0.444850 2.179834
  H 2.065022 1.253486 2.588471
  H 4.012328 -1.034829 3.131555
  H 2.995995 -0.232815 4.323460
  H 4.289310 0.660818 3.534242
  H 2.577541 1.507276 -2.236733
  H 5.054192 1.583595 -1.980944
  H 4.944547 -2.490622 -1.179992
  H 4.681726 -2.301260 -2.889627
  H 2.394847 -1.365033 -2.453560
  H 2.624835 -1.631204 -0.721904
  H 6.856860 0.238139 -2.151953
 29
 11.495599
  C 1.063798 1.325581 -0.118579
  C 2.482528 0.917898 -0.200711
  C 3.259444 0.490043 0.993914
  C 2.502341 0.333422 2.307213
  C 3.444894 -0.118070 3.418818
  C 3.125760 1.007608 -1.403594
  C 4.478392 0.673721 -1.714413
  C 5.110365 -0.520637 -1.934927
  C 4.481679 -1.875529 -1.949279
  C 3.002962 -1.995898 -1.628673
  H 2.705308 -3.036579 -1.743659
  O 6.369375 -0.568377 -2.342913
  H 0.649872 1.213306 0.875746
  H 0.466786 0.743323 -0.819567
  H 0.960645 2.366701 -0.426926
  H 4.076392 1.203771 1.151637
  H 3.766161 -0.451341 0.752408
  H 1.707544 -0.407408 2.200688
  H 2.048597 1.280681 2.602958
  H 3.900509 -1.075909 3.178646
  H 2.900663 -0.230625 4.353166
  H 4.237538 0.609368 3.577259
  H 2.649800 1.500439 -2.246462
  H 4.952344 1.563192 -2.123216
  H 5.064050 -2.513062 -1.276303
  H 4.668730 -2.270596 -2.953202
  H 2.405427 -1.401816 -2.315204
  H 2.776863 -1.702126 -0.612106
  H 6.816894 0.295465 -2.370175
