 19
 0.000000
  H 1.428823 0.193834 0.534748
  C 2.497190 0.142980 0.407665
  H 3.130829 0.468053 1.217020
  C 3.021407 -0.324548 -0.757256
  C 4.413900 -0.414909 -0.982878
  C 5.071481 -0.866158 -2.107871
  C 4.598971 -1.379323 -3.387220
  C 3.126147 -1.512086 -3.719281
  C 2.926494 -2.075427 -5.123200
  H 6.154420 -0.844424 -2.053482
  H 2.345549 -0.637432 -1.536660
  H 5.046230 -0.087626 -0.167255
  H 5.086769 -2.358787 -3.520118
  H 5.087602 -0.763925 -4.160186
  H 2.638853 -0.535435 -3.669525
  H 2.638347 -2.183162 -3.008316
  H 3.370882 -1.428017 -5.875375
  H 1.866303 -2.164116 -5.344977
  H 3.370566 -3.063412 -5.219081
 19
 4.272704
  H 1.501763 0.246798 0.666085
  C 2.552349 0.160169 0.450427
  H 3.239017 0.470079 1.223104
  C 2.991564 -0.324264 -0.757204
  C 4.360020 -0.441962 -1.050027
  C 5.067904 -0.874903 -2.129749
  C 4.623145 -1.386878 -3.406453
  C 3.150132 -1.520152 -3.739289
  C 2.940314 -2.082816 -5.141354
  H 6.144122 -0.831670 -2.021652
  H 2.246893 -0.617370 -1.488535
  H 4.796680 -0.079593 -0.145858
  H 5.126459 -2.359411 -3.547721
  H 5.127360 -0.782309 -4.180498
  H 2.663655 -0.544056 -3.680950
  H 2.663521 -2.185115 -3.022414
  H 3.381129 -1.436593 -5.896914
  H 1.878855 -2.169467 -5.357198
  H 3.381387 -3.071883 -5.240569
 19
 13.999048
  H 1.539909 0.253841 0.686855
  C 2.582850 0.159566 0.451534
  H 3.275340 0.465428 1.218628
  C 2.987519 -0.324290 -0.759742
  C 4.341979 -0.457032 -1.089929
  C 5.087612 -0.880172 -2.144904
  C 4.650868 -1.392754 -3.421123
  C 3.175504 -1.518172 -3.735624
  C 2.937798 -2.080917 -5.135474
  H 6.158899 -0.827806 -2.013983
  H 2.195033 -0.600020 -1.449714
  H 4.605942 -0.077152 -0.141658
  H 5.152842 -2.361811 -3.569155
  H 5.154497 -0.796973 -4.198802
  H 2.694382 -0.536580 -3.662986
  H 2.693126 -2.175644 -3.003823
  H 3.370900 -1.438356 -5.899031
  H 1.871741 -2.160091 -5.333792
  H 3.370182 -3.073554 -5.241571
 19
 27.677538
  H 1.548766 0.262802 0.707076
  C 2.602383 0.165200 0.465511
  H 3.306437 0.474414 1.243328
  C 2.989651 -0.316285 -0.740926
  C 4.331825 -0.466228 -1.111781
  C 5.092885 -0.886729 -2.161511
  C 4.655193 -1.401879 -3.444037
  C 3.192513 -1.521741 -3.743448
  C 2.946128 -2.074542 -5.119167
  H 6.170441 -0.831450 -2.024634
  H 2.164730 -0.584641 -1.416816
  H 4.458047 -0.078481 -0.141180
  H 5.156769 -2.377253 -3.595739
  H 5.157447 -0.803751 -4.228244
  H 2.720790 -0.552465 -3.665475
  H 2.720148 -2.167078 -3.016629
  H 3.374537 -1.433806 -5.882609
  H 1.882119 -2.149768 -5.306860
  H 3.374260 -3.065513 -5.226990
 19
 41.773892
  H 1.548092 0.264561 0.700910
  C 2.597108 0.168776 0.486709
  H 3.270217 0.463375 1.289041
  C 3.003694 -0.291037 -0.718603
  C 4.358270 -0.474570 -1.131007
  C 5.120817 -0.882669 -2.163676
  C 4.685838 -1.406340 -3.457827
  C 3.200761 -1.521897 -3.735170
  C 2.930138 -2.083443 -5.127304
  H 6.198741 -0.825035 -2.032517
  H 2.169719 -0.533499 -1.404414
  H 4.363587 -0.094067 -0.135297
  H 5.180981 -2.387442 -3.607650
  H 5.176929 -0.797072 -4.242318
  H 2.730301 -0.541032 -3.651056
  H 2.732644 -2.173291 -2.994971
  H 3.354169 -1.439570 -5.901909
  H 1.854996 -2.156327 -5.302106
  H 3.357677 -3.082905 -5.240881
 19
 48.666503
  H 1.526868 0.264927 0.688316
  C 2.581298 0.174969 0.519813
  H 3.197667 0.457031 1.362546
  C 3.031081 -0.251252 -0.659999
  C 4.376313 -0.490101 -1.170883
  C 5.109205 -0.877214 -2.163225
  C 4.702178 -1.424655 -3.503113
  C 3.205462 -1.527028 -3.733046
  C 2.929319 -2.089404 -5.126490
  H 6.193965 -0.820902 -2.053146
  H 2.229525 -0.470654 -1.389089
  H 4.332623 -0.110862 -0.133672
  H 5.176377 -2.406914 -3.631303
  H 5.167428 -0.789791 -4.269390
  H 2.738726 -0.544381 -3.648191
  H 2.746105 -2.181416 -2.990633
  H 3.349605 -1.444806 -5.898686
  H 1.854579 -2.161124 -5.289798
  H 3.358206 -3.085230 -5.238733
 19
 54.129104
  H 1.494852 0.267526 0.686768
  C 2.562587 0.178885 0.549028
  H 3.158886 0.451291 1.421983
  C 3.048791 -0.229583 -0.621977
  C 4.385150 -0.493383 -1.180943
  C 5.120804 -0.878770 -2.177034
  C 4.710131 -1.425775 -3.513683
  C 3.210202 -1.527038 -3.737461
  C 2.918361 -2.094221 -5.125738
  H 6.204006 -0.826194 -2.078927
  H 2.290868 -0.439917 -1.391015
  H 4.283542 -0.120945 -0.145914
  H 5.174360 -2.408454 -3.623466
  H 5.160602 -0.785219 -4.276259
  H 2.756980 -0.536461 -3.658053
  H 2.766547 -2.183472 -2.985291
  H 3.336933 -1.450805 -5.906862
  H 1.837361 -2.165516 -5.285231
  H 3.346855 -3.096316 -5.236170
 19
 59.463751
  H 1.488881 0.264513 0.682441
  C 2.545886 0.176573 0.564061
  H 3.120414 0.429802 1.432525
  C 3.053017 -0.216934 -0.603780
  C 4.405527 -0.495018 -1.191188
  C 5.136389 -0.879370 -2.186147
  C 4.716278 -1.427334 -3.521392
  C 3.208937 -1.523247 -3.732100
  C 2.909583 -2.093332 -5.112867
  H 6.219355 -0.826940 -2.089688
  H 2.318373 -0.418210 -1.399747
  H 4.237459 -0.117800 -0.150811
  H 5.177337 -2.419232 -3.628000
  H 5.164482 -0.785829 -4.292078
  H 2.759025 -0.535045 -3.659286
  H 2.767486 -2.175596 -2.980654
  H 3.321830 -1.461981 -5.890993
  H 1.840418 -2.161524 -5.266053
  H 3.329865 -3.085713 -5.221269
 19
 64.104220
  H 1.466921 0.255522 0.658392
  C 2.533976 0.167300 0.564918
  H 3.096438 0.404146 1.455730
  C 3.067644 -0.207154 -0.596942
  C 4.438823 -0.487807 -1.182140
  C 5.151487 -0.876454 -2.188825
  C 4.714365 -1.426122 -3.519465
  C 3.206095 -1.519538 -3.727075
  C 2.898214 -2.094903 -5.104639
  H 6.226017 -0.826733 -2.101313
  H 2.362389 -0.394903 -1.411617
  H 4.198120 -0.107839 -0.150020
  H 5.167319 -2.412762 -3.623058
  H 5.156778 -0.792785 -4.288152
  H 2.761272 -0.533376 -3.659902
  H 2.766806 -2.166168 -2.974022
  H 3.314416 -1.461545 -5.895924
  H 1.816787 -2.160842 -5.255348
  H 3.319347 -3.099939 -5.211108
 19
 68.015955
  H 1.446114 0.245987 0.626207
  C 2.515034 0.150770 0.558590
  H 3.059025 0.356403 1.476857
  C 3.074758 -0.194221 -0.601946
  C 4.472720 -0.482478 -1.179233
  C 5.165394 -0.875459 -2.199161
  C 4.711889 -1.426375 -3.520955
  C 3.204944 -1.514524 -3.716624
  C 2.887520 -2.096671 -5.089009
  H 6.254461 -0.830462 -2.127409
  H 2.388811 -0.351408 -1.439154
  H 4.160645 -0.097909 -0.142161
  H 5.161005 -2.418372 -3.624620
  H 5.152570 -0.794974 -4.298725
  H 2.757633 -0.512360 -3.653129
  H 2.762649 -2.163763 -2.948483
  H 3.296374 -1.477556 -5.876227
  H 1.817286 -2.158981 -5.232218
  H 3.299630 -3.092391 -5.191501
 19
 71.746091
  H 1.427081 0.241670 0.593222
  C 2.499115 0.132370 0.556422
  H 3.008697 0.289296 1.490723
  C 3.090641 -0.173661 -0.602193
  C 4.504533 -0.474496 -1.169716
  C 5.178688 -0.869064 -2.199403
  C 4.709442 -1.425563 -3.521703
  C 3.201861 -1.510332 -3.704431
  C 2.871804 -2.100421 -5.072365
  H 6.256304 -0.829927 -2.146127
  H 2.423703 -0.287093 -1.471528
  H 4.134079 -0.091394 -0.136268
  H 5.158513 -2.421210 -3.624583
  H 5.148375 -0.796625 -4.305460
  H 2.761528 -0.515930 -3.645710
  H 2.766751 -2.149311 -2.934914
  H 3.279677 -1.482307 -5.871621
  H 1.792038 -2.160860 -5.207546
  H 3.283056 -3.103850 -5.171980
 19
 74.811165
  H 1.410161 0.238811 0.552955
  C 2.476687 0.104508 0.546422
  H 2.962530 0.191532 1.514917
  C 3.099731 -0.145895 -0.609294
  C 4.529213 -0.466808 -1.168244
  C 5.187491 -0.863083 -2.207047
  C 4.704610 -1.424541 -3.521421
  C 3.195659 -1.507401 -3.696395
  C 2.859000 -2.107981 -5.053830
  H 6.263772 -0.827894 -2.167933
  H 2.467564 -0.189361 -1.496378
  H 4.107606 -0.083894 -0.136240
  H 5.149285 -2.422955 -3.621321
  H 5.139405 -0.800329 -4.313080
  H 2.754483 -0.504150 -3.646353
  H 2.758952 -2.142508 -2.912818
  H 3.263003 -1.501758 -5.856556
  H 1.783447 -2.166804 -5.183376
  H 3.265526 -3.108930 -5.145262
 19
 77.268988
  H 1.382376 0.194693 0.575623
  C 2.458442 0.106289 0.574779
  H 2.958092 0.249203 1.548067
  C 3.077159 -0.158817 -0.586122
  C 4.548769 -0.479015 -1.164095
  C 5.192243 -0.872857 -2.212224
  C 4.700701 -1.430532 -3.526627
  C 3.189301 -1.503470 -3.704375
  C 2.851266 -2.105376 -5.062981
  H 6.276620 -0.850829 -2.177240
  H 2.436051 -0.271597 -1.490371
  H 4.101012 0.028444 -0.131023
  H 5.135156 -2.427701 -3.628099
  H 5.138040 -0.810914 -4.312736
  H 2.755354 -0.500093 -3.658206
  H 2.748465 -2.132648 -2.924509
  H 3.261568 -1.502150 -5.867769
  H 1.776114 -2.157393 -5.194790
  H 3.252064 -3.110972 -5.151787
 19
 77.858663
  H 1.406787 0.223319 0.578635
  C 2.467206 0.074571 0.562307
  H 2.947090 0.099339 1.522994
  C 3.097182 -0.123172 -0.601437
  C 4.508170 -0.465129 -1.165626
  C 5.163881 -0.855714 -2.200809
  C 4.686149 -1.425867 -3.516062
  C 3.175833 -1.497872 -3.701977
  C 2.841132 -2.122626 -5.057702
  H 6.253838 -0.819997 -2.150947
  H 2.489705 -0.120773 -1.504022
  H 4.062193 -0.009611 -0.151859
  H 5.117391 -2.417174 -3.605845
  H 5.127064 -0.815327 -4.297469
  H 2.748962 -0.499282 -3.673745
  H 2.733416 -2.105712 -2.919710
  H 3.259540 -1.530631 -5.871648
  H 1.760964 -2.173677 -5.195779
  H 3.240766 -3.134766 -5.130274
