9

H -2.478864976810754 0.6981062337099333 -0.06136363501441157
C -2.064824 0.585656 -0.033075
C -1.649005 -0.466622 0.643589
C -0.235124 -0.940397 0.802164
H 0.07754189348994023 -0.6823051711120734 0.5964643943167847
H -1.364255 1.223646 -0.54978
H -2.381081 -1.085421 1.148786
H -0.006046 -1.000975 1.87089
H -0.175662 -1.95959 0.402533
