19
 0
 C -3.67823477 -0.53140508 -0.22654616
 C -2.20236547 -0.82596319 -0.46551671
 C -1.94514253 -1.04564689 -1.95539018
 C -1.21582274 0.21438217 0.06761529
 C -1.69467067 1.51757565 0.65445871
 O 0.00000000 0.00000000 0.00000000
 H -4.29984780 -1.36175253 -0.57912513
 H -4.00023719 0.37145311 -0.75674224
 H -3.88586245 -0.39658374 0.84012337
 H -1.96830802 -1.75522697 0.07035903
 H -2.13150806 -0.13049732 -2.52802458
 H -2.59092985 -1.83641129 -2.35181302
 H -0.90655853 -1.34261637 -2.13761418
 H -2.77815195 1.58705153 0.73126762
 H -1.34275106 2.33993857 0.02586405
 H -1.28122767 1.61975553 1.66206200
 O 2.70000000 0.00000000 0.00000000
 H 3.20830891 -0.69766200 0.44029152
 H 3.36524409 0.49073311 -0.50555607
