 13
 0.000000
  H 3.587725 -0.601638 -0.993056
  C 4.661254 -0.608252 -1.006038
  C 5.375626 -1.118842 -2.008410
  C 6.818514 -1.129554 -2.029439
  C 7.534042 -1.640418 -3.032357
  C 9.023255 -1.661814 -3.074353
  H 5.162170 -0.174024 -0.153580
  H 4.872392 -1.553894 -2.862488
  H 7.327170 -0.695490 -1.177299
  H 7.033435 -2.076090 -3.887641
  H 9.457670 -1.209104 -2.185611
  H 9.381387 -1.117301 -3.948844
  H 9.381387 -2.689329 -3.148083
 13
 0.575449
  H 3.607269 -0.683280 -0.953561
  C 4.680878 -0.591398 -1.001617
  C 5.371459 -1.107560 -2.016328
  C 6.815217 -1.118683 -2.053084
  C 7.542001 -1.625807 -3.046270
  C 9.030466 -1.664857 -3.070210
  H 5.165339 -0.070312 -0.192434
  H 4.858564 -1.555188 -2.857333
  H 7.291126 -0.726904 -1.165094
  H 7.047059 -2.062717 -3.904623
  H 9.449180 -1.249419 -2.157119
  H 9.405780 -1.092276 -3.919008
  H 9.381781 -2.690069 -3.185240
 13
 3.008511
  H 3.641883 -0.753834 -0.846263
  C 4.701245 -0.620142 -1.000002
  C 5.354342 -1.094025 -2.054970
  C 6.798761 -1.102344 -2.087353
  C 7.540529 -1.619133 -3.060612
  C 9.028749 -1.666897 -3.051794
  H 5.194340 -0.021721 -0.250375
  H 4.824358 -1.496523 -2.907275
  H 7.238059 -0.779597 -1.151936
  H 7.061322 -2.082410 -3.913786
  H 9.427701 -1.255311 -2.128341
  H 9.423344 -1.092196 -3.890432
  H 9.380719 -2.692050 -3.164903
 13
 11.311986
  H 3.721939 -0.817598 -0.718160
  C 4.757602 -0.640889 -0.975294
  C 5.330058 -1.068221 -2.095398
  C 6.773673 -1.109057 -2.122580
  C 7.540384 -1.638088 -3.080354
  C 9.029570 -1.654953 -3.039930
  H 5.240453 0.077093 -0.333255
  H 4.758553 -1.377303 -2.959419
  H 7.139728 -0.894560 -1.127154
  H 7.087773 -2.168370 -3.909377
  H 9.400159 -1.183111 -2.133992
  H 9.422952 -1.115432 -3.901891
  H 9.412218 -2.674370 -3.090361
 13
 25.519540
  H 3.831598 -0.874073 -0.608536
  C 4.838839 -0.653351 -0.941170
  C 5.305963 -1.034804 -2.138602
  C 6.739622 -1.149365 -2.166420
  C 7.538004 -1.662189 -3.108242
  C 9.025715 -1.628695 -3.022646
  H 5.291925 0.156771 -0.394420
  H 4.677026 -1.250868 -2.990833
  H 7.012849 -1.043389 -1.119025
  H 7.129041 -2.258592 -3.913765
  H 9.351987 -1.137361 -2.109104
  H 9.419791 -1.078118 -3.876095
  H 9.452542 -2.632564 -3.055074
 13
 43.814629
  H 3.970604 -1.026255 -0.515779
  C 4.925454 -0.697552 -0.916234
  C 5.284838 -0.957972 -2.204232
  C 6.690397 -1.147539 -2.249593
  C 7.533982 -1.700036 -3.131934
  C 9.016284 -1.615575 -2.988429
  H 5.319344 0.153699 -0.388772
  H 4.607101 -1.003204 -3.042988
  H 6.893748 -1.052807 -1.167173
  H 7.175450 -2.388174 -3.885745
  H 9.290204 -0.962001 -2.164355
  H 9.440089 -1.215031 -3.908768
  H 9.463795 -2.598511 -2.824629
 13
 63.621077
  H 4.141727 -1.091643 -0.410955
  C 5.041882 -0.723386 -0.904138
  C 5.243613 -0.897724 -2.275985
  C 6.602871 -1.183513 -2.367145
  C 7.526747 -1.744869 -3.163365
  C 8.994073 -1.582305 -2.944886
  H 5.445388 0.144295 -0.413994
  H 4.505926 -0.830269 -3.060127
  H 6.730676 -1.127961 -1.201094
  H 7.243226 -2.513138 -3.873763
  H 9.193770 -0.867188 -2.150584
  H 9.454219 -1.220886 -3.864697
  H 9.471611 -2.531728 -2.693204
 13
 74.223988
  H 4.287989 -1.149775 -0.369643
  C 5.153855 -0.757281 -0.899844
  C 5.237166 -0.851454 -2.338001
  C 6.528028 -1.214624 -2.488603
  C 7.510695 -1.772618 -3.190534
  C 8.964254 -1.555523 -2.909169
  H 5.553090 0.129573 -0.429487
  H 4.460244 -0.704338 -3.068025
  H 6.569706 -1.177722 -1.136819
  H 7.284894 -2.592187 -3.865994
  H 9.104690 -0.803395 -2.136308
  H 9.466406 -1.218744 -3.817153
  H 9.447831 -2.480716 -2.592966
 13
 60.704501
  H 4.427425 -1.171905 -0.339919
  C 5.267566 -0.769996 -0.893150
  C 5.243263 -0.857451 -2.379522
  C 6.477016 -1.250282 -2.631852
  C 7.496306 -1.776719 -3.240813
  C 8.929115 -1.552634 -2.871708
  H 5.631764 0.170259 -0.474566
  H 4.420586 -0.686517 -3.047051
  H 6.410939 -1.145770 -0.993073
  H 7.318701 -2.590903 -3.936784
  H 9.016767 -0.819217 -2.074802
  H 9.491630 -1.191610 -3.735352
  H 9.388627 -2.483619 -2.547787
 13
 38.279132
  H 4.320698 -1.181407 -0.414739
  C 5.225383 -0.796744 -0.858121
  C 5.314580 -0.767056 -2.365520
  C 6.491583 -1.252538 -2.662137
  C 7.512832 -1.831539 -3.230651
  C 8.954105 -1.536264 -2.939330
  H 5.546930 0.134923 -0.381694
  H 4.535136 -0.466992 -3.041436
  H 6.240944 -1.271378 -0.792119
  H 7.333769 -2.737671 -3.805163
  H 9.048753 -0.694647 -2.257257
  H 9.493071 -1.297252 -3.858020
  H 9.429147 -2.409887 -2.494830
 13
 21.727564
  H 4.204587 -1.084839 -0.507460
  C 5.194363 -0.805318 -0.832744
  C 5.396282 -0.713669 -2.325844
  C 6.482683 -1.321863 -2.705905
  C 7.516923 -1.893061 -3.248315
  C 8.947849 -1.539668 -2.970312
  H 5.532921 0.109977 -0.334890
  H 4.699702 -0.215181 -2.979105
  H 6.069733 -1.429299 -0.615119
  H 7.367998 -2.808104 -3.814935
  H 9.013571 -0.697644 -2.285740
  H 9.471870 -1.277379 -3.890699
  H 9.454202 -2.399661 -2.534564
 13
 10.496556
  H 4.120761 -0.980764 -0.599063
  C 5.166419 -0.784445 -0.801641
  C 5.498582 -0.718930 -2.264548
  C 6.500681 -1.408990 -2.718193
  C 7.541549 -2.000601 -3.218528
  C 8.953028 -1.517973 -3.062173
  H 5.463826 0.150191 -0.317551
  H 4.885667 -0.107632 -2.912024
  H 5.856675 -1.517673 -0.393199
  H 7.429179 -2.972966 -3.686254
  H 8.984109 -0.581963 -2.510261
  H 9.418066 -1.366432 -4.036445
  H 9.534144 -2.267532 -2.525751
 13
 7.844239
  H 4.050276 -1.069830 -0.749657
  C 5.100830 -0.785589 -0.757390
  C 5.601760 -0.681613 -2.166674
  C 6.575824 -1.387245 -2.655163
  C 7.579006 -2.020964 -3.192839
  C 8.999859 -1.541465 -3.152738
  H 5.191933 0.177968 -0.256898
  H 5.077949 0.023325 -2.802026
  H 5.673188 -1.525072 -0.205607
  H 7.421070 -2.980200 -3.671565
  H 9.056822 -0.537948 -2.740122
  H 9.421414 -1.537748 -4.156791
  H 9.602753 -2.209328 -2.538162
 13
 7.592449
  H 4.063933 -1.089481 -0.737153
  C 5.111493 -0.786834 -0.760221
  C 5.589877 -0.682922 -2.178712
  C 6.573945 -1.366431 -2.676708
  C 7.576836 -2.020514 -3.175540
  C 8.999030 -1.542813 -3.150402
  H 5.191920 0.184677 -0.272087
  H 5.047201 0.015930 -2.805926
  H 5.702039 -1.511666 -0.207155
  H 7.416301 -2.985651 -3.643075
  H 9.058716 -0.536744 -2.742343
  H 9.414852 -1.542458 -4.157901
  H 9.606544 -2.210803 -2.538408
