 17
 0.000000
  C 0.962275 0.043357 0.191805
  C 2.464474 0.075741 0.151046
  C 3.187480 -0.009051 1.466990
  H 2.487146 -0.071446 2.293439
  C 3.117720 0.161678 -1.016714
  H 2.555893 0.212519 -1.939051
  C 4.551727 0.155873 -1.160859
  C 5.158506 0.173872 -2.349532
  O 6.499688 0.163535 -2.555685
  H 0.598013 -0.087152 1.207207
  H 0.581155 -0.777313 -0.415352
  H 0.535329 0.965595 -0.202098
  H 3.814977 0.868811 1.621600
  H 3.828945 -0.889920 1.500037
  H 5.153842 0.136322 -0.262384
  H 4.617718 0.195749 -3.283458
  H 6.957190 0.143677 -1.705489
 17
 -0.260670
  C 0.966864 0.065478 0.184562
  C 2.469276 0.067890 0.162313
  C 3.177495 -0.052988 1.479978
  H 2.468077 -0.147849 2.295025
  C 3.126180 0.155190 -1.002574
  H 2.557214 0.233016 -1.919142
  C 4.557843 0.150470 -1.161718
  C 5.153454 0.209711 -2.353449
  O 6.498188 0.208264 -2.572759
  H 0.584975 0.217673 1.191309
  H 0.584017 -0.887801 -0.181811
  H 0.568874 0.847976 -0.455915
  H 3.796511 0.827542 1.667904
  H 3.827536 -0.928832 1.492299
  H 5.167461 0.097584 -0.268317
  H 4.602321 0.264838 -3.283255
  H 6.962587 0.158970 -1.730319
 17
 -0.724926
  C 0.970725 0.083798 0.181073
  C 2.470998 0.045850 0.161729
  C 3.165055 -0.118553 1.484213
  H 2.442426 -0.240653 2.286662
  C 3.131900 0.163899 -0.995625
  H 2.565554 0.249068 -1.914322
  C 4.563274 0.170499 -1.162125
  C 5.153541 0.223109 -2.357609
  O 6.491138 0.240668 -2.580985
  H 0.607365 0.513426 1.112477
  H 0.558048 -0.921398 0.089292
  H 0.600024 0.687093 -0.644831
  H 3.779992 0.752768 1.709600
  H 3.815125 -0.992904 1.473867
  H 5.176279 0.140440 -0.270248
  H 4.599652 0.255135 -3.284081
  H 6.960075 0.209173 -1.737268
 17
 -1.015471
  C 0.970400 0.100930 0.192599
  C 2.464343 0.016272 0.139845
  C 3.163282 -0.176875 1.456645
  H 2.439581 -0.351928 2.249779
  C 3.116809 0.160535 -1.019264
  H 2.552804 0.220099 -1.940944
  C 4.552591 0.186932 -1.161055
  C 5.165436 0.246018 -2.348808
  O 6.508128 0.288909 -2.548105
  H 0.663485 0.797749 0.973597
  H 0.525695 -0.868502 0.417291
  H 0.591612 0.463632 -0.756233
  H 3.750549 0.703499 1.720786
  H 3.839753 -1.029798 1.412969
  H 5.149879 0.174187 -0.256434
  H 4.627618 0.263728 -3.286566
  H 6.962847 0.268783 -1.694510
 17
 1.835337
  C 0.978367 0.138398 0.187466
  C 2.468671 0.004050 0.156846
  C 3.154093 -0.279304 1.461884
  H 2.421848 -0.535713 2.222017
  C 3.116815 0.157139 -1.011077
  H 2.572769 0.051173 -1.940833
  C 4.546986 0.279160 -1.160471
  C 5.164968 0.224554 -2.343443
  O 6.501172 0.336798 -2.545523
  H 0.731684 1.048523 0.743700
  H 0.471479 -0.693063 0.668081
  H 0.633970 0.312289 -0.826858
  H 3.717836 0.583727 1.819153
  H 3.850418 -1.108471 1.349166
  H 5.134385 0.431428 -0.263120
  H 4.637831 0.068742 -3.274729
  H 6.946370 0.449371 -1.698520
 17
 11.268978
  C 1.009670 0.218548 0.169349
  C 2.485381 -0.025298 0.192360
  C 3.147006 -0.346891 1.498507
  H 2.392573 -0.589327 2.243095
  C 3.117926 0.030193 -0.999141
  H 2.620314 -0.326875 -1.887102
  C 4.529306 0.240341 -1.160013
  C 5.154254 0.191500 -2.342863
  O 6.458688 0.480310 -2.560774
  H 0.825114 1.227397 0.550918
  H 0.409380 -0.481546 0.736509
  H 0.771702 0.320932 -0.884926
  H 3.749372 0.475320 1.890039
  H 3.802341 -1.205575 1.367582
  H 5.092285 0.512434 -0.280494
  H 4.645302 -0.050335 -3.263019
  H 6.857657 0.801059 -1.742908
 17
 28.929344
  C 1.050533 0.277587 0.136981
  C 2.496525 -0.089798 0.273033
  C 3.115751 -0.516128 1.560746
  H 2.349032 -0.657985 2.312898
  C 3.129487 0.035124 -0.916171
  H 2.697569 -0.469701 -1.767703
  C 4.503087 0.374219 -1.163481
  C 5.134883 0.129290 -2.321544
  O 6.386191 0.557754 -2.652483
  H 0.910360 1.333178 0.404491
  H 0.337294 -0.329928 0.668240
  H 1.046440 0.426213 -0.956302
  H 3.797050 0.247403 1.946393
  H 3.700435 -1.419976 1.423655
  H 5.019476 0.923829 -0.387601
  H 4.701064 -0.458804 -3.112068
  H 6.730551 1.110806 -1.946428
 17
 55.785974
  C 1.085987 0.301448 0.142572
  C 2.503595 -0.099870 0.313052
  C 3.144778 -0.491253 1.592772
  H 2.386725 -0.634260 2.360677
  C 3.085794 -0.054764 -0.938224
  H 2.739260 -0.803236 -1.646817
  C 4.459118 0.344444 -1.173780
  C 5.064486 0.252289 -2.360178
  O 6.341966 0.628459 -2.632010
  H 0.873713 1.380989 0.112146
  H 0.337325 -0.223841 0.723304
  H 1.274584 0.373900 -1.006554
  H 3.859129 0.251429 1.943819
  H 3.694819 -1.431761 1.456293
  H 4.980821 0.840259 -0.348822
  H 4.566559 -0.120219 -3.242621
  H 6.761091 0.953895 -1.822134
 17
 77.778048
  C 1.135330 0.349420 0.222402
  C 2.452568 -0.122036 0.362948
  C 3.110635 -0.601024 1.609971
  H 2.371950 -0.738964 2.395229
  C 3.022816 -0.056734 -0.945974
  H 2.717984 -0.827108 -1.646014
  C 4.384628 0.403916 -1.186275
  C 5.046975 0.209859 -2.327158
  O 6.288794 0.680546 -2.617542
  H 0.968668 1.404960 0.046994
  H 0.337037 -0.065545 0.841278
  H 1.638823 0.422791 -1.184652
  H 3.839082 0.133722 1.957479
  H 3.642923 -1.537184 1.444765
  H 4.841285 0.997535 -0.402988
  H 4.639820 -0.356116 -3.151494
  H 6.627936 1.178464 -1.862839
 17
 58.636091
  C 1.152465 0.386004 0.323616
  C 2.407330 -0.131421 0.378930
  C 3.100034 -0.659173 1.565647
  H 2.409228 -0.759158 2.402213
  C 2.979090 -0.097609 -0.999901
  H 2.722588 -0.925565 -1.668737
  C 4.331504 0.434242 -1.212580
  C 5.052044 0.225585 -2.313014
  O 6.289017 0.712321 -2.552513
  H 0.985888 1.404597 0.008655
  H 0.366470 0.088544 1.002199
  H 1.964990 0.412245 -1.345960
  H 3.889629 0.039705 1.844272
  H 3.571791 -1.624107 1.370921
  H 4.743118 1.039318 -0.405623
  H 4.723036 -0.407975 -3.115903
  H 6.540944 1.318182 -1.840945
 17
 36.492087
  C 1.081373 0.340684 0.417727
  C 2.350414 -0.126060 0.359465
  C 3.144987 -0.695066 1.480456
  H 2.515690 -0.876031 2.347409
  C 2.929698 0.075012 -1.012497
  H 2.730056 -0.804846 -1.661251
  C 4.317453 0.538370 -1.214935
  C 5.091310 0.143172 -2.224472
  O 6.340154 0.585652 -2.481793
  H 0.806380 1.291249 -0.003064
  H 0.354880 0.014368 1.148188
  H 2.031937 0.597850 -1.434023
  H 3.898415 0.051884 1.747662
  H 3.666380 -1.617244 1.212890
  H 4.710848 1.218958 -0.468189
  H 4.749485 -0.523746 -3.002196
  H 6.597386 1.222691 -1.805972
 17
 21.446400
  C 1.101885 0.393858 0.479055
  C 2.318861 -0.122329 0.319326
  C 3.157745 -0.700105 1.408453
  H 2.574274 -0.851594 2.313303
  C 2.887566 0.004762 -1.069646
  H 2.743831 -0.937437 -1.615386
  C 4.280180 0.505673 -1.214467
  C 5.083449 0.173227 -2.210474
  O 6.352404 0.620780 -2.394359
  H 0.785055 1.292579 -0.021838
  H 0.457474 0.136695 1.310134
  H 2.097116 0.606079 -1.551976
  H 3.950986 0.014546 1.623408
  H 3.626729 -1.641648 1.121440
  H 4.626572 1.190245 -0.449746
  H 4.789450 -0.500555 -3.001965
  H 6.588118 1.226082 -1.680109
 17
 10.374112
  C 1.094839 0.415148 0.568480
  C 2.303785 -0.068563 0.296953
  C 3.195583 -0.700200 1.314560
  H 2.667985 -0.866696 2.250300
  C 2.831946 0.062645 -1.104990
  H 2.742044 -0.916940 -1.590741
  C 4.232630 0.565839 -1.229277
  C 5.104635 0.110710 -2.116562
  O 6.376046 0.556698 -2.287453
  H 0.601206 1.142557 -0.049676
  H 0.580114 0.165436 1.490756
  H 2.103041 0.684152 -1.629787
  H 4.032232 -0.028174 1.502663
  H 3.603647 -1.645948 0.960831
  H 4.515025 1.364651 -0.554741
  H 4.874004 -0.684560 -2.811396
  H 6.562934 1.254105 -1.644767
 17
 6.517416
  C 1.187447 0.589302 0.642056
  C 2.311189 0.003542 0.273920
  C 3.130583 -0.853086 1.187529
  H 2.593414 -1.074006 2.106149
  C 2.802064 0.103719 -1.151456
  H 2.759610 -0.897736 -1.590774
  C 4.194633 0.637746 -1.259752
  C 5.157360 0.057926 -1.959652
  O 6.431414 0.510031 -2.091882
  H 0.659128 1.272848 -0.004457
  H 0.709777 0.414918 1.612882
  H 2.089205 0.728421 -1.708589
  H 4.052429 -0.330286 1.443358
  H 3.407997 -1.786063 0.700020
  H 4.392165 1.555875 -0.718807
  H 5.010497 -0.859321 -2.511289
  H 6.532785 1.337029 -1.604103
 17
 5.281203
  C 1.253118 0.645957 0.682215
  C 2.298768 -0.024727 0.228728
  C 3.130711 -0.915471 1.100918
  H 2.692571 -1.015980 2.089068
  C 2.752992 0.070327 -1.206921
  H 2.764461 -0.927377 -1.651730
  C 4.123977 0.668716 -1.298817
  C 5.170452 0.048894 -1.821329
  O 6.428083 0.552905 -1.921194
  H 0.666297 1.287655 0.045859
  H 0.934911 0.578153 1.709080
  H 2.049458 0.689881 -1.767980
  H 4.135595 -0.506328 1.202540
  H 3.223832 -1.903425 0.652333
  H 4.229819 1.665554 -0.890944
  H 5.117235 -0.948118 -2.235801
  H 6.449414 1.444245 -1.550871
