 15
 0.000000
  H 1.424624 0.046117 0.318417
  C 2.490979 0.056509 0.134228
  C 3.363268 -0.012290 1.353569
  C 2.555651 -0.085271 2.646904
  C 3.461344 -0.154321 3.870687
  C 2.953788 0.126103 -1.099121
  H 2.318526 0.174921 -1.964305
  H 4.012822 0.137505 -1.301154
  H 4.015735 0.865562 1.384511
  H 4.015743 -0.888052 1.285560
  H 1.913222 -0.968569 2.625848
  H 1.913227 0.794774 2.725341
  H 4.097766 -1.035643 3.826921
  H 2.869425 -0.205720 4.781671
  H 4.097743 0.726308 3.926335
 15
 6.952430
  H 1.445360 0.048063 0.283911
  C 2.508849 0.059358 0.083721
  C 3.398166 -0.008463 1.285717
  C 2.523775 -0.089670 2.724816
  C 3.446135 -0.157726 3.930970
  C 2.952628 0.129352 -1.156699
  H 2.301613 0.177591 -2.011615
  H 4.008931 0.141724 -1.375923
  H 4.047366 0.868572 1.312492
  H 4.047373 -0.882944 1.213657
  H 1.884210 -0.971977 2.707088
  H 1.884208 0.789024 2.806452
  H 4.082641 -1.038531 3.877730
  H 2.867226 -0.209599 4.850318
  H 4.082633 0.723474 3.977150
