 17
 0.000000
  C 1.007940 -0.071298 0.048089
  C 2.503991 -0.082557 0.025989
  C 3.219660 -0.594934 -0.979896
  C 4.656505 -0.606406 -1.002415
  C 5.377740 -1.121552 -2.013729
  C 6.815421 -1.131409 -2.033077
  C 7.531391 -1.641723 -3.034918
  H 8.603448 -1.654524 -3.060045
  H 0.644990 0.394539 0.962599
  H 0.612719 -1.085796 0.008100
  H 0.612720 0.492837 -0.796039
  H 3.004816 0.352558 0.880193
  H 2.708762 -1.028232 -1.830520
  H 5.161825 -0.172002 -0.149612
  H 4.874241 -1.556448 -2.867503
  H 7.322666 -0.697042 -1.180342
  H 7.034856 -2.077653 -3.890708
 17
 1.450146
  C 1.034381 -0.032135 0.124976
  C 2.523949 -0.086222 0.018790
  C 3.178466 -0.616049 -1.021344
  C 4.605082 -0.668100 -1.123526
  C 5.312254 -1.186388 -2.141013
  C 6.744304 -1.144256 -2.058295
  C 7.599514 -1.606689 -2.966132
  H 8.664429 -1.540098 -2.835413
  H 0.723566 0.440271 1.052366
  H 0.611192 -1.036352 0.089432
  H 0.611190 0.529546 -0.708225
  H 3.088940 0.332993 0.841774
  H 2.620085 -1.037244 -1.848224
  H 5.204539 -0.256919 -0.316311
  H 4.840261 -1.629851 -3.011595
  H 7.076457 -0.674095 -1.135289
  H 7.255375 -2.069969 -3.875644
 17
 6.506861
  C 1.068803 -0.005813 0.176657
  C 2.553304 -0.092833 0.005819
  C 3.149042 -0.634692 -1.057933
  C 4.562609 -0.716708 -1.218953
  C 5.260076 -1.239081 -2.244454
  C 6.682976 -1.152688 -2.074848
  C 7.643524 -1.568951 -2.892055
  H 8.689000 -1.447665 -2.653932
  H 0.808234 0.473293 1.117203
  H 0.622401 -1.000047 0.159253
  H 0.622381 0.564685 -0.637829
  H 3.163541 0.312280 0.801120
  H 2.551974 -1.042082 -1.857705
  H 5.243036 -0.330064 -0.459912
  H 4.822316 -1.681709 -3.113417
  H 6.853195 -0.660585 -1.108776
  H 7.414138 -2.046050 -3.828690
 17
 14.923688
  C 1.091110 0.016699 0.220871
  C 2.574825 -0.097034 -0.002420
  C 3.125224 -0.649699 -1.087404
  C 4.535356 -0.755411 -1.294931
  C 5.229028 -1.278502 -2.321848
  C 6.642214 -1.157355 -2.084056
  C 7.675326 -1.535271 -2.825973
  H 8.690498 -1.374205 -2.509710
  H 0.870570 0.499722 1.169122
  H 0.627517 -0.968159 0.219245
  H 0.627463 0.594481 -0.576793
  H 3.219700 0.296742 0.770629
  H 2.498408 -1.043163 -1.859841
  H 5.297833 -0.388787 -0.575171
  H 4.816087 -1.725883 -3.200118
  H 6.681526 -0.659079 -1.105821
  H 7.537331 -2.019311 -3.776153
 17
 26.058795
  C 1.121892 0.030190 0.247346
  C 2.590019 -0.098902 -0.006122
  C 3.109318 -0.657309 -1.102403
  C 4.514889 -0.777810 -1.338917
  C 5.208511 -1.300702 -2.365417
  C 6.615721 -1.161066 -2.091425
  C 7.691714 -1.511749 -2.779891
  H 8.681960 -1.325285 -2.413603
  H 0.928394 0.515709 1.200509
  H 0.646219 -0.952749 0.255867
  H 0.646191 0.615013 -0.542729
  H 3.256472 0.288309 0.754046
  H 2.452522 -1.047798 -1.868999
  H 5.341768 -0.424711 -0.645660
  H 4.807764 -1.754737 -3.256712
  H 6.548593 -0.646072 -1.080269
  H 7.617368 -2.000798 -3.739738
 17
 39.131910
  C 1.138745 0.042953 0.272400
  C 2.602576 -0.099678 -0.007626
  C 3.097417 -0.663091 -1.113725
  C 4.496809 -0.793904 -1.370514
  C 5.196891 -1.315642 -2.394793
  C 6.599908 -1.163615 -2.096269
  C 7.706737 -1.492903 -2.742657
  H 8.680877 -1.284920 -2.334531
  H 0.965954 0.525377 1.219476
  H 0.661254 -0.920444 0.289180
  H 0.661239 0.622965 -0.497019
  H 3.280952 0.278866 0.735529
  H 2.418628 -1.048094 -1.869552
  H 5.382116 -0.457188 -0.709461
  H 4.809774 -1.772883 -3.292428
  H 6.439516 -0.644605 -1.077377
  H 7.685940 -1.983653 -3.706150
 17
 52.351177
  C 1.148330 0.045465 0.277289
  C 2.605350 -0.098258 -0.004825
  C 3.096296 -0.662924 -1.113351
  C 4.489566 -0.795171 -1.372990
  C 5.194924 -1.316027 -2.395571
  C 6.599218 -1.164891 -2.098203
  C 7.709944 -1.491268 -2.738687
  H 8.679518 -1.280533 -2.326766
  H 0.979747 0.533993 1.236319
  H 0.661463 -0.935643 0.295549
  H 0.661484 0.637098 -0.505613
  H 3.291022 0.282111 0.741919
  H 2.418583 -1.045389 -1.864242
  H 5.442116 -0.456546 -0.708210
  H 4.812804 -1.771258 -3.289347
  H 6.390968 -0.625004 -1.038749
  H 7.696359 -1.981238 -3.701760
 17
 64.673319
  C 1.148511 0.050782 0.287612
  C 2.609444 -0.096433 -0.000909
  C 3.094798 -0.661927 -1.110938
  C 4.485033 -0.795856 -1.374461
  C 5.198633 -1.312806 -2.389957
  C 6.603269 -1.167522 -2.101770
  C 7.716850 -1.490969 -2.735551
  H 8.693702 -1.274052 -2.315895
  H 0.984761 0.538361 1.244605
  H 0.659441 -0.928368 0.308119
  H 0.659720 0.643058 -0.492433
  H 3.298958 0.282443 0.742885
  H 2.403984 -1.047345 -1.867630
  H 5.490222 -0.456971 -0.709883
  H 4.818636 -1.769637 -3.287114
  H 6.356202 -0.610989 -1.011617
  H 7.711645 -1.978807 -3.697509
 17
 74.730337
  C 1.143209 0.050290 0.286286
  C 2.600306 -0.093252 0.005962
  C 3.093730 -0.657997 -1.102373
  C 4.487193 -0.789073 -1.361188
  C 5.209345 -1.301955 -2.369531
  C 6.617705 -1.169450 -2.103075
  C 7.722044 -1.499890 -2.749416
  H 8.687423 -1.288737 -2.348052
  H 0.973186 0.537340 1.241941
  H 0.659144 -0.924291 0.304287
  H 0.660009 0.637986 -0.491739
  H 3.277680 0.283578 0.745838
  H 2.415497 -1.038690 -1.849974
  H 5.548290 -0.440832 -0.679210
  H 4.829110 -1.757579 -3.264467
  H 6.360143 -0.588179 -0.967325
  H 7.708445 -1.984980 -3.710984
 17
 85.110322
  C 1.130716 0.049465 0.284629
  C 2.593772 -0.090074 0.010797
  C 3.092219 -0.653427 -1.094977
  C 4.482906 -0.781635 -1.346319
  C 5.219644 -1.291042 -2.345805
  C 6.634571 -1.173126 -2.115143
  C 7.725035 -1.510167 -2.777897
  H 8.706944 -1.310388 -2.385491
  H 0.954940 0.535850 1.239297
  H 0.647623 -0.928986 0.300526
  H 0.647932 0.637653 -0.497709
  H 3.276287 0.293528 0.763881
  H 2.407690 -1.040339 -1.854645
  H 5.614948 -0.411015 -0.618114
  H 4.837059 -1.746817 -3.239619
  H 6.384788 -0.553315 -0.897707
  H 7.696065 -1.998353 -3.736944
 17
 95.409612
  C 1.116806 0.046025 0.276773
  C 2.584017 -0.088856 0.015955
  C 3.093605 -0.650211 -1.085280
  C 4.483959 -0.772022 -1.327179
  C 5.238305 -1.268091 -2.303747
  C 6.650174 -1.183049 -2.124954
  C 7.718622 -1.533570 -2.809679
  H 8.715837 -1.332923 -2.442469
  H 0.931500 0.531255 1.228461
  H 0.636595 -0.934045 0.288801
  H 0.638417 0.632714 -0.509611
  H 3.263513 0.299832 0.779668
  H 2.413299 -1.039436 -1.850353
  H 5.692324 -0.370292 -0.541649
  H 4.851834 -1.723592 -3.198262
  H 6.424471 -0.511236 -0.816686
  H 7.667051 -2.017623 -3.778222
 17
 104.187019
  C 1.099686 0.042776 0.271422
  C 2.566446 -0.084634 0.020824
  C 3.086733 -0.644001 -1.077124
  C 4.480067 -0.762033 -1.308793
  C 5.256427 -1.251349 -2.269473
  C 6.673765 -1.187914 -2.144424
  C 7.719993 -1.548918 -2.853760
  H 8.722830 -1.371179 -2.503482
  H 0.905623 0.526803 1.221418
  H 0.625218 -0.937580 0.280113
  H 0.625022 0.625975 -0.516629
  H 3.235376 0.304851 0.785084
  H 2.416687 -1.031708 -1.837940
  H 5.780875 -0.319688 -0.440729
  H 4.866831 -1.707598 -3.164398
  H 6.487523 -0.459662 -0.715614
  H 7.646773 -2.042948 -3.824238
 17
 111.347710
  C 1.086030 0.039989 0.266174
  C 2.554017 -0.082540 0.024966
  C 3.083345 -0.640336 -1.069882
  C 4.476516 -0.753024 -1.290788
  C 5.275431 -1.231351 -2.229838
  C 6.690570 -1.198162 -2.165123
  C 7.713044 -1.571367 -2.898741
  H 8.725223 -1.405869 -2.570232
  H 0.883831 0.524803 1.217746
  H 0.614477 -0.943134 0.271754
  H 0.614117 0.622180 -0.525844
  H 3.212736 0.306502 0.788284
  H 2.414184 -1.030856 -1.836139
  H 5.875599 -0.259744 -0.322538
  H 4.884387 -1.688309 -3.126358
  H 6.565181 -0.401288 -0.600609
  H 7.619358 -2.063229 -3.863606
 17
 116.511069
  C 1.075213 0.038369 0.263250
  C 2.544019 -0.080320 0.029461
  C 3.080542 -0.636917 -1.063022
  C 4.473271 -0.744451 -1.273570
  C 5.294197 -1.211165 -2.189693
  C 6.703169 -1.209063 -2.186766
  C 7.702719 -1.593490 -2.942678
  H 8.723319 -1.438613 -2.633646
  H 0.866082 0.524735 1.217889
  H 0.605927 -0.947407 0.266232
  H 0.605466 0.619957 -0.532389
  H 3.193577 0.307642 0.790625
  H 2.410241 -1.030452 -1.835140
  H 5.976735 -0.192411 -0.189673
  H 4.904009 -1.669345 -3.088655
  H 6.657465 -0.337091 -0.473960
  H 7.592161 -2.082244 -3.900736
