 26
 0.000000
  C 1.009700 0.118546 0.347071
  C 2.485021 0.131007 0.378292
  C 3.242720 0.606320 1.560418
  C 2.439927 1.090656 2.764620
  C 3.372624 1.540945 3.884987
  C 3.139038 -0.326757 -0.760487
  C 4.522130 -0.396493 -0.935060
  C 5.168600 -0.854754 -2.078572
  C 4.530733 -1.351076 -3.315943
  H 3.452610 -1.357766 -3.332116
  O 6.481906 -0.879497 -2.142337
  H 0.555517 0.485485 1.259459
  H 0.651875 -0.895883 0.165550
  H 0.651974 0.725008 -0.486155
  H 3.901240 1.421458 1.240006
  H 3.901081 -0.203821 1.893561
  H 1.802052 0.289397 3.141822
  H 1.802386 1.930223 2.482081
  H 4.008191 0.722592 4.216173
  H 2.796076 1.884875 4.740173
  H 4.008494 2.360524 3.557580
  H 2.510544 -0.654204 -1.575397
  H 5.146099 -0.067057 -0.114817
  H 4.900640 -2.360885 -3.502080
  H 4.900385 -0.749559 -4.148170
  H 6.927476 -0.556491 -1.336779
 26
 12.893581
  C 0.959807 0.127877 0.370622
  C 2.434362 0.132884 0.383318
  C 3.210116 0.603645 1.553844
  C 2.428507 1.092707 2.769555
  C 3.381056 1.537305 3.875576
  C 3.065679 -0.324792 -0.755018
  C 4.574737 -0.403277 -0.951283
  C 5.184897 -0.858099 -2.086618
  C 4.544671 -1.348625 -3.310474
  H 3.464557 -1.344933 -3.301063
  O 6.629705 -0.889974 -2.168092
  H 0.520567 0.497340 1.289073
  H 0.594434 -0.884491 0.191807
  H 0.594537 0.734600 -0.459320
  H 3.869785 1.413614 1.223439
  H 3.869632 -0.209613 1.876310
  H 1.791794 0.295168 3.156553
  H 1.792134 1.936356 2.496537
  H 4.016526 0.715184 4.197042
  H 2.820225 1.884855 4.739591
  H 4.016868 2.352848 3.538423
  H 2.438952 -0.651438 -1.567866
  H 5.200094 -0.075872 -0.135771
  H 4.904514 -2.361226 -3.502898
  H 4.904414 -0.749081 -4.148926
  H 7.067062 -0.568314 -1.365879
 26
 39.296755
  C 0.921029 0.138396 0.400788
  C 2.387861 0.134214 0.388890
  C 3.182029 0.598355 1.540468
  C 2.426514 1.092731 2.768850
  C 3.399292 1.532112 3.858678
  C 2.985516 -0.323446 -0.749345
  C 4.603427 -0.403390 -0.948239
  C 5.157477 -0.858773 -2.088190
  C 4.569618 -1.350856 -3.322956
  H 3.482068 -1.342457 -3.304369
  O 6.754920 -0.890823 -2.163777
  H 0.498809 0.510524 1.325333
  H 0.548136 -0.869266 0.216749
  H 0.547536 0.737280 -0.429886
  H 3.843599 1.402289 1.198316
  H 3.844464 -0.217647 1.850603
  H 1.791203 0.299866 3.167797
  H 1.790533 1.940293 2.507072
  H 4.035164 0.706628 4.170966
  H 2.855229 1.883421 4.731564
  H 4.034517 2.344101 3.511404
  H 2.386224 -0.655805 -1.577219
  H 5.205267 -0.074031 -0.125058
  H 4.927823 -2.361364 -3.512901
  H 4.929443 -0.749063 -4.156180
  H 7.132028 -0.564907 -1.341836
 26
 69.000207
  C 0.866578 0.147818 0.419376
  C 2.344329 0.135681 0.390514
  C 3.158351 0.594845 1.532261
  C 2.430225 1.092529 2.768834
  C 3.421512 1.524552 3.844592
  C 2.914303 -0.319468 -0.741116
  C 4.617408 -0.401520 -0.946700
  C 5.115053 -0.858998 -2.087881
  C 4.582341 -1.356382 -3.328526
  H 3.504920 -1.354825 -3.325935
  O 6.887790 -0.886283 -2.162755
  H 0.462828 0.522626 1.350613
  H 0.482181 -0.858662 0.241781
  H 0.482708 0.751278 -0.405778
  H 3.824597 1.390675 1.178684
  H 3.823869 -0.224751 1.828453
  H 1.794681 0.303621 3.177147
  H 1.795534 1.945059 2.517064
  H 4.056670 0.695439 4.147659
  H 2.892692 1.879086 4.725682
  H 4.057512 2.332002 3.489582
  H 2.344247 -0.656325 -1.579338
  H 5.203226 -0.066756 -0.114156
  H 4.958272 -2.367622 -3.509705
  H 4.958864 -0.750958 -4.157988
  H 7.213567 -0.550081 -1.326067
 26
 97.709939
  C 0.829089 0.153145 0.442261
  C 2.312275 0.137690 0.401344
  C 3.139581 0.599342 1.541821
  C 2.422718 1.101288 2.787738
  C 3.418560 1.534326 3.857753
  C 2.876523 -0.327975 -0.753880
  C 4.618138 -0.416893 -0.974229
  C 5.065245 -0.864335 -2.106017
  C 4.580520 -1.358296 -3.353687
  H 3.492516 -1.372677 -3.377556
  O 7.057954 -0.902737 -2.182861
  H 0.435377 0.531267 1.378563
  H 0.440022 -0.853704 0.271471
  H 0.438827 0.758218 -0.379847
  H 3.806991 1.392151 1.179909
  H 3.808944 -0.221137 1.831036
  H 1.787448 0.314586 3.201480
  H 1.785473 1.953469 2.540116
  H 4.055616 0.705970 4.159395
  H 2.894028 1.890077 4.740698
  H 4.053753 2.341237 3.499299
  H 2.316245 -0.668299 -1.601452
  H 5.201735 -0.085085 -0.141277
  H 4.973287 -2.359712 -3.530181
  H 4.966019 -0.743373 -4.167058
  H 7.369103 -0.572487 -1.329816
 26
 107.030491
  C 0.851990 0.191678 0.466628
  C 2.331438 0.127777 0.412486
  C 3.164253 0.576132 1.541583
  C 2.459270 1.103009 2.767142
  C 3.464192 1.517716 3.834488
  C 2.872206 -0.359388 -0.743717
  C 4.326242 -0.471569 -0.986295
  C 4.717610 -0.902872 -2.134889
  C 4.578158 -1.396092 -3.410767
  H 3.518044 -1.543967 -3.610721
  O 7.243546 -0.737886 -2.011217
  H 0.474800 0.584814 1.392895
  H 0.435205 -0.794817 0.291661
  H 0.479669 0.784887 -0.362448
  H 3.862743 1.343380 1.182497
  H 3.819041 -0.254385 1.845821
  H 1.798316 0.338558 3.185734
  H 1.844903 1.973082 2.508294
  H 4.076527 0.674161 4.146770
  H 2.947263 1.897953 4.712788
  H 4.123049 2.302571 3.469417
  H 2.249449 -0.685319 -1.581461
  H 4.949918 -0.154568 -0.165737
  H 5.107199 -2.341928 -3.525823
  H 5.002566 -0.713658 -4.146643
  H 7.388312 -0.385182 -1.127482
 26
 111.254300
  C 0.785662 0.203866 0.486284
  C 2.266030 0.112670 0.406697
  C 3.140163 0.556763 1.526885
  C 2.471204 1.112979 2.776629
  C 3.517826 1.514796 3.816221
  C 2.776477 -0.384828 -0.755244
  C 4.205343 -0.508942 -1.014474
  C 4.623587 -0.922670 -2.157597
  C 4.619587 -1.404304 -3.444829
  H 3.587474 -1.616601 -3.735160
  O 7.417486 -0.669485 -1.917177
  H 0.447363 0.615061 1.428773
  H 0.341555 -0.775643 0.350083
  H 0.406885 0.821517 -0.320509
  H 3.837920 1.316453 1.142885
  H 3.780475 -0.288348 1.824224
  H 1.811664 0.361542 3.222569
  H 1.873418 1.996068 2.528273
  H 4.119419 0.660496 4.118970
  H 3.032950 1.913625 4.706379
  H 4.181881 2.284884 3.427547
  H 2.124948 -0.695000 -1.567915
  H 4.845267 -0.200529 -0.205115
  H 5.207114 -2.318630 -3.527334
  H 5.058481 -0.690099 -4.140281
  H 7.590628 -0.323621 -1.036537
 26
 111.462800
  C 0.738844 0.229277 0.545796
  C 2.215693 0.119740 0.421754
  C 3.115093 0.549951 1.508328
  C 2.480384 1.111767 2.771669
  C 3.548543 1.500915 3.780624
  C 2.692639 -0.384261 -0.756472
  C 4.100172 -0.532990 -1.063333
  C 4.527232 -0.943341 -2.201861
  C 4.672218 -1.415964 -3.481599
  H 3.676301 -1.690032 -3.849407
  O 7.571772 -0.619870 -1.821155
  H 0.433205 0.645663 1.501120
  H 0.278117 -0.749226 0.427354
  H 0.343223 0.858729 -0.249384
  H 3.806770 1.301187 1.119279
  H 3.749152 -0.290378 1.796762
  H 1.825437 0.370832 3.225463
  H 1.887289 1.990949 2.535226
  H 4.147716 0.640028 4.066784
  H 3.090605 1.902554 4.680281
  H 4.211005 2.261837 3.374759
  H 2.016587 -0.673289 -1.524426
  H 4.771414 -0.240623 -0.274888
  H 5.294481 -2.319678 -3.510772
  H 5.121085 -0.675602 -4.151451
  H 7.767128 -0.275499 -0.946931
 26
 110.473904
  C 0.674475 0.261737 0.573423
  C 2.150330 0.142110 0.407017
  C 3.094661 0.546365 1.480134
  C 2.505361 1.095958 2.782112
  C 3.617281 1.458290 3.768284
  C 2.594928 -0.344700 -0.791082
  C 3.977241 -0.506015 -1.135842
  C 4.431194 -0.895392 -2.272020
  C 4.725719 -1.481024 -3.485770
  H 3.774069 -1.819052 -3.915472
  O 7.718253 -0.495111 -1.701042
  H 0.395676 0.661291 1.541494
  H 0.205930 -0.705520 0.452177
  H 0.264466 0.904670 -0.194731
  H 3.779226 1.300471 1.076955
  H 3.726287 -0.311505 1.731809
  H 1.854970 0.352783 3.247536
  H 1.911422 1.989154 2.581708
  H 4.217988 0.583339 4.019642
  H 3.193719 1.849346 4.693459
  H 4.277173 2.220013 3.352533
  H 1.882471 -0.612908 -1.548708
  H 4.674108 -0.241354 -0.360965
  H 5.348898 -2.378255 -3.371675
  H 5.207706 -0.788752 -4.188935
  H 7.917730 -0.118241 -0.840816
 26
 111.111000
  C 0.627860 0.274040 0.609667
  C 2.101488 0.148541 0.428499
  C 3.058109 0.548808 1.492184
  C 2.484057 1.100504 2.800072
  C 3.607221 1.458195 3.775136
  C 2.532136 -0.339815 -0.774059
  C 4.035405 -0.521730 -1.165190
  C 4.476417 -0.912703 -2.305908
  C 4.756449 -1.499275 -3.522632
  H 3.799205 -1.833410 -3.942851
  O 7.898209 -0.510688 -1.746896
  H 0.360353 0.674520 1.580539
  H 0.154258 -0.691311 0.492964
  H 0.212770 0.918756 -0.154252
  H 3.741624 1.300246 1.082297
  H 3.688781 -0.311631 1.737403
  H 1.835381 0.359848 3.271861
  H 1.891724 1.996108 2.605752
  H 4.206903 0.580799 4.020343
  H 3.194496 1.850765 4.704558
  H 4.265969 2.217352 3.352925
  H 1.811074 -0.605024 -1.524567
  H 4.741037 -0.260008 -0.397276
  H 5.377141 -2.399015 -3.414909
  H 5.234151 -0.808802 -4.230474
  H 8.107781 -0.134785 -0.888650
 26
 109.886219
  C 0.611333 0.260590 0.638420
  C 2.069368 0.101146 0.418597
  C 3.065290 0.510421 1.444313
  C 2.534574 1.099279 2.749918
  C 3.690369 1.462207 3.680729
  C 2.462712 -0.408057 -0.782109
  C 3.849012 -0.576645 -1.183521
  C 4.335409 -0.966382 -2.299404
  C 4.726515 -1.442239 -3.525280
  H 3.811007 -1.795185 -4.026098
  O 8.062068 -0.441677 -1.434942
  H 0.376621 0.687423 1.605213
  H 0.109994 -0.702850 0.551484
  H 0.187267 0.903881 -0.132389
  H 3.738982 1.254203 1.001968
  H 3.684858 -0.355970 1.700360
  H 1.892614 0.377220 3.259045
  H 1.951909 1.999647 2.545072
  H 4.281979 0.580983 3.923491
  H 3.318660 1.879369 4.612942
  H 4.351362 2.193324 3.220001
  H 1.718446 -0.677638 -1.514970
  H 4.574289 -0.299996 -0.416392
  H 5.378369 -2.317494 -3.437933
  H 5.188089 -0.677049 -4.153954
  H 8.266210 -0.110492 -0.557376
 26
 110.287574
  C 0.606856 0.268203 0.654765
  C 2.062936 0.123510 0.413530
  C 3.060978 0.527147 1.439713
  C 2.529183 1.093451 2.751872
  C 3.679827 1.452952 3.690022
  C 2.447435 -0.389571 -0.820582
  C 3.817165 -0.573329 -1.229034
  C 4.274025 -0.976223 -2.339049
  C 4.703254 -1.454510 -3.535240
  H 3.802731 -1.839352 -4.045922
  O 8.262809 -0.426633 -1.403433
  H 0.383392 0.678926 1.631224
  H 0.115486 -0.699983 0.561663
  H 0.165674 0.909958 -0.106516
  H 3.727773 1.277488 0.997772
  H 3.685278 -0.342919 1.675715
  H 1.891098 0.362787 3.254053
  H 1.937689 1.991089 2.559401
  H 4.278444 0.576319 3.928473
  H 3.295779 1.858834 4.623154
  H 4.331631 2.201456 3.243319
  H 1.704902 -0.668740 -1.558551
  H 4.556512 -0.306682 -0.466217
  H 5.340126 -2.340129 -3.419666
  H 5.168835 -0.699033 -4.169681
  H 8.496272 -0.089525 -0.536263
 26
 109.630205
  C 0.564431 0.281879 0.664675
  C 2.013762 0.144389 0.393739
  C 3.042590 0.522462 1.398136
  C 2.553434 1.068954 2.735647
  C 3.733517 1.403966 3.641978
  C 2.371831 -0.345718 -0.824079
  C 3.724546 -0.546384 -1.252426
  C 4.200653 -0.965111 -2.369416
  C 4.701757 -1.492793 -3.521339
  H 3.840794 -1.915452 -4.073522
  O 8.422838 -0.334840 -1.253727
  H 0.355893 0.676228 1.651448
  H 0.072114 -0.685723 0.560630
  H 0.107077 0.934889 -0.079078
  H 3.704360 1.275528 0.953504
  H 3.666719 -0.355403 1.605637
  H 1.925334 0.331957 3.239557
  H 1.964446 1.974512 2.580480
  H 4.333610 0.519947 3.844791
  H 3.381573 1.794324 4.593662
  H 4.374893 2.156585 3.188129
  H 1.605560 -0.610577 -1.534430
  H 4.492212 -0.283348 -0.516590
  H 5.349150 -2.357543 -3.335443
  H 5.188296 -0.757003 -4.168716
  H 8.685125 0.026233 -0.403125
 26
 109.646853
  C 0.523728 0.274316 0.688354
  C 1.964834 0.133725 0.394385
  C 3.021085 0.509724 1.367138
  C 2.581979 1.070523 2.715902
  C 3.796024 1.400687 3.578609
  C 2.303070 -0.374164 -0.830150
  C 3.646047 -0.592122 -1.277083
  C 4.129444 -1.025354 -2.379259
  C 4.704067 -1.478200 -3.543613
  H 3.886707 -1.891192 -4.163385
  O 8.555484 -0.313333 -1.057205
  H 0.330524 0.676548 1.675680
  H 0.030373 -0.693274 0.599942
  H 0.053853 0.921768 -0.051719
  H 3.676101 1.252338 0.895579
  H 3.642190 -0.372698 1.559626
  H 1.963916 0.341428 3.242418
  H 1.997631 1.982477 2.577819
  H 4.395660 0.512112 3.766714
  H 3.480326 1.800542 4.539377
  H 4.428056 2.145063 3.098539
  H 1.522792 -0.642494 -1.525914
  H 4.436047 -0.339966 -0.559984
  H 5.370979 -2.331283 -3.372405
  H 5.187907 -0.690847 -4.124014
  H 8.850600 0.032532 -0.220332
