 21
 0.000000
  C 0.882076 0.054714 0.283900
  C 2.375117 0.086382 0.092102
  C 3.236602 0.025746 1.345149
  C 2.537617 -0.116768 2.694305
  H 3.283672 -0.151729 3.481468
  C 2.966329 0.142052 -1.102846
  C 2.359723 0.178112 -2.483466
  C 0.856783 0.245986 -2.724358
  H 0.678120 0.267321 -3.795147
  H 4.046461 0.134792 -1.149423
  H 0.605847 0.005070 1.330331
  H 0.450017 -0.818779 -0.197726
  H 0.419850 0.950749 -0.122438
  H 3.845134 0.930058 1.398846
  H 3.924424 -0.819553 1.240014
  H 1.954065 -1.034494 2.742565
  H 1.881840 0.729421 2.890755
  H 2.735740 -0.709783 -3.008272
  H 2.807765 1.041406 -2.992378
  H 0.424937 1.146624 -2.297450
  H 0.345303 -0.621912 -2.320302
 21
 -1.301592
  C 0.830202 -0.215024 0.299262
  C 2.308723 -0.028558 0.098521
  C 3.219287 -0.019667 1.318836
  C 2.557154 0.022900 2.691862
  H 3.329675 0.085387 3.457155
  C 2.901731 0.101800 -1.085418
  C 2.372412 0.143891 -2.492364
  C 0.891510 0.418370 -2.726674
  H 0.710707 0.489757 -3.798330
  H 3.985158 0.174838 -1.076974
  H 0.583119 -0.345657 1.347337
  H 0.485454 -1.099506 -0.236200
  H 0.274151 0.645146 -0.069339
  H 3.873395 0.852798 1.233775
  H 3.861830 -0.903392 1.274065
  H 1.974343 -0.875097 2.885645
  H 1.914126 0.895223 2.791118
  H 2.638473 -0.805395 -2.976101
  H 2.940641 0.921441 -3.013781
  H 0.597712 1.361816 -2.273712
  H 0.264296 -0.375389 -2.335458
 21
 -2.179722
  C 0.865665 -0.440164 0.276389
  C 2.322831 -0.120558 0.094206
  C 3.215899 -0.116253 1.323217
  C 2.543438 0.201747 2.656682
  H 3.304889 0.302017 3.428472
  C 2.905157 0.105821 -1.079885
  C 2.365729 0.165721 -2.481909
  C 0.898217 0.526602 -2.682733
  H 0.704335 0.648130 -3.745941
  H 3.978820 0.271560 -1.066651
  H 0.649822 -0.728790 1.299927
  H 0.576563 -1.268548 -0.370733
  H 0.243324 0.418675 0.032454
  H 3.997342 0.628018 1.155622
  H 3.709787 -1.091883 1.400373
  H 1.863574 -0.585574 2.969691
  H 1.992861 1.138144 2.596473
  H 2.567629 -0.795766 -2.967501
  H 2.964335 0.911411 -3.013904
  H 0.665293 1.467004 -2.187201
  H 0.233494 -0.243816 -2.309760
 21
 -2.977600
  C 0.918146 -0.661577 0.243259
  C 2.352310 -0.245291 0.084438
  C 3.202938 -0.222792 1.336659
  C 2.529228 0.426439 2.543652
  H 3.231258 0.470834 3.373736
  C 2.932421 0.088566 -1.062972
  C 2.361661 0.239113 -2.449593
  C 0.894739 0.634198 -2.583382
  H 0.674912 0.840914 -3.629862
  H 4.001022 0.269918 -1.052499
  H 0.749607 -1.077489 1.232504
  H 0.665066 -1.428432 -0.486541
  H 0.239555 0.178347 0.110674
  H 4.078808 0.372977 1.082654
  H 3.517921 -1.237281 1.595315
  H 1.657833 -0.131364 2.875898
  H 2.218120 1.440076 2.301417
  H 2.536458 -0.690045 -3.005965
  H 2.957318 1.012612 -2.945331
  H 0.689870 1.534779 -2.009549
  H 0.227458 -0.153928 -2.253732
 21
 -3.303405
  C 0.998144 -0.910174 0.195285
  C 2.398443 -0.385735 0.072339
  C 3.172286 -0.325454 1.362532
  C 2.496390 0.626126 2.349514
  H 3.094102 0.712943 3.254269
  C 2.969215 0.045103 -1.050447
  C 2.336474 0.267841 -2.398704
  C 0.905403 0.801591 -2.413581
  H 0.638031 1.084127 -3.432537
  H 4.048225 0.166213 -1.059212
  H 0.890921 -1.451873 1.133929
  H 0.780290 -1.596834 -0.620492
  H 0.256202 -0.112155 0.182866
  H 4.146935 0.098206 1.123076
  H 3.275062 -1.313103 1.816862
  H 1.507120 0.271919 2.628621
  H 2.395377 1.613026 1.905421
  H 2.384902 -0.660812 -2.985436
  H 2.966976 0.999147 -2.919973
  H 0.824075 1.685143 -1.781634
  H 0.187755 0.061060 -2.075036
 21
 5.273115
  C 0.974439 -1.062293 0.169249
  C 2.378274 -0.531060 0.077036
  C 3.138994 -0.390486 1.378144
  C 2.511351 0.756662 2.179583
  H 3.110299 0.965838 3.062380
  C 2.985337 -0.051373 -1.013386
  C 2.354352 0.315187 -2.335517
  C 0.957140 0.933093 -2.263840
  H 0.694942 1.361447 -3.232311
  H 4.053848 -0.199533 -1.105260
  H 0.856685 -1.600500 1.110396
  H 0.783371 -1.747458 -0.657968
  H 0.212895 -0.278039 0.143097
  H 4.101300 -0.022762 1.031476
  H 3.154968 -1.296609 1.975973
  H 1.505232 0.504072 2.506067
  H 2.459574 1.653948 1.570960
  H 2.330554 -0.558861 -3.001014
  H 3.022940 1.048264 -2.800717
  H 0.932057 1.727823 -1.517831
  H 0.200418 0.192876 -2.008844
 21
 22.405026
  C 0.914287 -1.206982 0.109482
  C 2.274444 -0.575319 0.088180
  C 3.038103 -0.405841 1.381921
  C 2.581697 0.846870 2.142869
  H 3.284764 1.055175 2.942263
  C 2.961784 -0.113931 -0.978314
  C 2.375023 0.329086 -2.293439
  C 1.041693 1.064935 -2.188961
  H 0.765942 1.480551 -3.158747
  H 3.978884 -0.463060 -1.102979
  H 0.788761 -1.741740 1.053838
  H 0.823897 -1.911371 -0.721487
  H 0.092269 -0.487465 0.032398
  H 3.919023 0.021004 0.892297
  H 3.070950 -1.266986 2.029726
  H 1.601017 0.705944 2.594990
  H 2.534637 1.702984 1.480212
  H 2.263311 -0.522807 -2.978490
  H 3.105503 1.001653 -2.748822
  H 1.114420 1.881298 -1.466623
  H 0.239364 0.391185 -1.872787
 21
 51.245936
  C 0.876477 -1.400748 0.056763
  C 2.174199 -0.665178 0.111557
  C 2.942022 -0.399389 1.368264
  C 2.645900 0.955356 2.061473
  H 3.436329 1.184705 2.775057
  C 2.932896 -0.169984 -0.907550
  C 2.399591 0.358188 -2.225238
  C 1.126145 1.183308 -2.093042
  H 0.853514 1.609920 -3.054480
  H 3.873953 -0.671644 -1.069189
  H 0.741390 -1.947087 0.985262
  H 0.869347 -2.100257 -0.779548
  H 0.015509 -0.734722 -0.055558
  H 3.737373 0.086563 0.670403
  H 2.951882 -1.189592 2.117249
  H 1.696835 0.915899 2.611372
  H 2.568138 1.760487 1.337771
  H 2.217557 -0.474373 -2.917480
  H 3.183495 0.978994 -2.669309
  H 1.276891 2.003549 -1.389018
  H 0.300383 0.577865 -1.743174
 21
 71.771637
  C 0.873797 -1.544958 0.064968
  C 2.130147 -0.753334 0.165314
  C 2.805855 -0.382645 1.359444
  C 2.649171 1.016231 1.945874
  H 3.490471 1.261144 2.591553
  C 2.944460 -0.210156 -0.867789
  C 2.424854 0.386994 -2.163223
  C 1.184986 1.255472 -1.983971
  H 0.934161 1.755493 -2.917676
  H 3.866913 -0.753657 -1.064852
  H 0.696626 -2.064894 1.004830
  H 0.918971 -2.271310 -0.746138
  H 0.016906 -0.894516 -0.116700
  H 3.677572 0.185999 0.323495
  H 2.819397 -1.111977 2.179725
  H 1.742114 1.049880 2.554860
  H 2.567084 1.779714 1.175506
  H 2.211631 -0.415828 -2.878376
  H 3.222712 0.996944 -2.596203
  H 1.360606 2.014449 -1.224129
  H 0.330119 0.658458 -1.679462
 21
 51.302543
  C 0.907850 -1.656641 0.060083
  C 2.109586 -0.796058 0.224222
  C 2.660135 -0.365413 1.396233
  C 2.611650 1.060831 1.883724
  H 3.477555 1.310752 2.504062
  C 2.979014 -0.235649 -0.851775
  C 2.434593 0.406983 -2.111438
  C 1.240079 1.316244 -1.859833
  H 0.938529 1.810207 -2.781468
  H 3.848111 -0.863407 -1.094639
  H 0.697633 -2.189799 0.992388
  H 1.015779 -2.381906 -0.754116
  H 0.049975 -1.025643 -0.162719
  H 3.647656 0.253099 -0.013466
  H 2.661073 -1.043705 2.268622
  H 1.715592 1.169618 2.496872
  H 2.562527 1.776320 1.066408
  H 2.164830 -0.374559 -2.825931
  H 3.235314 0.999372 -2.567778
  H 1.491258 2.077970 -1.127409
  H 0.391084 0.750118 -1.485326
 21
 24.642427
  C 0.995840 -1.692050 -0.001698
  C 2.141743 -0.759108 0.247326
  C 2.594809 -0.368489 1.454181
  C 2.671512 1.050144 1.940069
  H 3.490617 1.207101 2.644492
  C 2.990113 -0.168848 -0.841967
  C 2.394494 0.402326 -2.119756
  C 1.218646 1.345872 -1.870853
  H 0.882092 1.789400 -2.808910
  H 3.756371 -0.916261 -1.107483
  H 0.685752 -2.176609 0.926796
  H 1.223994 -2.461130 -0.743951
  H 0.158771 -1.104100 -0.371993
  H 3.659042 0.439768 -0.193441
  H 2.407536 -1.017636 2.325001
  H 1.742559 1.245618 2.467047
  H 2.769179 1.771334 1.133606
  H 2.062837 -0.425115 -2.742240
  H 3.174566 0.935603 -2.674944
  H 1.515018 2.153421 -1.200846
  H 0.380132 0.819885 -1.420283
 21
 7.512003
  C 1.084408 -1.750126 -0.058921
  C 2.146647 -0.749818 0.261913
  C 2.413632 -0.310928 1.492144
  C 2.697435 1.098737 1.922143
  H 3.505553 1.154732 2.653109
  C 2.995660 -0.179301 -0.843389
  C 2.344988 0.374384 -2.104191
  C 1.218369 1.357430 -1.804175
  H 0.888261 1.846466 -2.718365
  H 3.748566 -0.935445 -1.112579
  H 0.751825 -2.264445 0.840849
  H 1.410898 -2.491046 -0.789259
  H 0.235459 -1.214734 -0.479342
  H 3.647010 0.535017 -0.315142
  H 2.139376 -0.900746 2.366548
  H 1.790857 1.467121 2.401587
  H 2.939647 1.758501 1.093424
  H 1.970917 -0.449467 -2.715780
  H 3.111382 0.893250 -2.685995
  H 1.558043 2.121707 -1.109166
  H 0.363484 0.853988 -1.361815
 21
 -3.725104
  C 1.202680 -1.796548 -0.092218
  C 2.138720 -0.680193 0.259622
  C 2.252225 -0.216703 1.499011
  C 2.730295 1.131427 1.946063
  H 3.441826 1.046796 2.768040
  C 3.002346 -0.140845 -0.848520
  C 2.292297 0.355153 -2.105754
  C 1.201383 1.371850 -1.788388
  H 0.796039 1.794796 -2.705290
  H 3.696336 -0.947352 -1.121603
  H 0.805983 -2.268198 0.803969
  H 1.688077 -2.555416 -0.705812
  H 0.367980 -1.391420 -0.662128
  H 3.647246 0.628578 -0.415115
  H 1.813534 -0.759493 2.331214
  H 1.864660 1.682864 2.314007
  H 3.189408 1.713652 1.153005
  H 1.866525 -0.492293 -2.646461
  H 3.031492 0.824451 -2.759704
  H 1.605184 2.182414 -1.185784
  H 0.387913 0.912417 -1.233247
 21
 -6.573201
  C 1.302248 -1.928140 -0.066005
  C 2.106152 -0.697044 0.236306
  C 2.110690 -0.154926 1.445384
  C 2.706685 1.157110 1.860767
  H 3.194015 1.062412 2.828520
  C 2.983463 -0.187131 -0.880175
  C 2.248557 0.393304 -2.082303
  C 1.249641 1.474701 -1.690493
  H 0.759880 1.877716 -2.574023
  H 3.591143 -1.042457 -1.207155
  H 0.995497 -2.426846 0.846639
  H 1.865349 -2.628554 -0.676565
  H 0.404168 -1.649682 -0.618170
  H 3.646704 0.548523 -0.429447
  H 1.571852 -0.616976 2.264501
  H 1.897136 1.881602 1.967073
  H 3.429310 1.559551 1.160815
  H 1.730483 -0.409458 -2.610509
  H 2.984622 0.818171 -2.768608
  H 1.753542 2.291435 -1.176061
  H 0.491015 1.072624 -1.025586
 21
 -9.055754
  C 1.406564 -2.004334 -0.059508
  C 2.143573 -0.725308 0.221022
  C 2.012981 -0.111298 1.391408
  C 2.629696 1.174768 1.841132
  H 3.056280 1.052781 2.836692
  C 2.991555 -0.223295 -0.915695
  C 2.160707 0.375935 -2.057729
  C 1.332153 1.569657 -1.602238
  H 0.759365 1.976145 -2.433379
  H 3.574944 -1.059196 -1.311934
  H 0.983213 -2.421256 0.850680
  H 2.072481 -2.741571 -0.506445
  H 0.592103 -1.824827 -0.761089
  H 3.692397 0.527952 -0.556760
  H 1.384006 -0.570698 2.146242
  H 1.863791 1.948433 1.904460
  H 3.408404 1.523821 1.171359
  H 1.501055 -0.390406 -2.468823
  H 2.838410 0.689488 -2.855353
  H 1.977145 2.354200 -1.213197
  H 0.641328 1.274944 -0.815941
