 26
 0.000000
  C 0.904789 0.048698 0.272679
  C 2.396425 0.059152 0.087369
  C 3.242065 -0.012185 1.351721
  C 2.525129 -0.088052 2.696132
  H 3.245981 -0.133646 3.504219
  C 2.992916 0.127313 -1.120577
  C 2.354742 0.204841 -2.494538
  C 0.844283 0.217115 -2.711983
  H 0.628537 0.277005 -3.773388
  C 4.451957 0.132260 -1.208178
  C 5.192820 0.194792 -2.316493
  O 6.552440 0.195571 -2.330236
  H 0.610383 -0.010105 1.314740
  H 0.460187 -0.815440 -0.214034
  H 0.460186 0.962104 -0.113732
  H 3.888291 0.871279 1.381074
  H 3.888295 -0.893345 1.281501
  H 1.897240 -0.976360 2.748824
  H 1.897229 0.788689 2.848424
  H 2.746096 -0.643533 -3.066589
  H 2.746097 1.112187 -2.967517
  H 0.385656 1.076164 -2.231132
  H 0.385657 -0.690575 -2.330826
  H 4.997976 0.079722 -0.277072
  H 4.816214 0.251655 -3.324186
  H 6.882318 0.144420 -1.423688
 26
 10.483850
  C 0.782056 0.049607 0.256569
  C 2.400285 0.061530 0.045225
  C 3.310874 -0.016268 1.424081
  C 2.572222 -0.091202 2.751972
  H 3.283178 -0.137437 3.571416
  C 2.994690 0.128955 -1.149659
  C 2.361924 0.206566 -2.525096
  C 0.852740 0.218957 -2.744626
  H 0.642525 0.279037 -3.809406
  C 4.453875 0.133463 -1.229484
  C 5.201208 0.195717 -2.332871
  O 6.560137 0.195989 -2.337643
  H 0.503581 -0.009446 1.303058
  H 0.338998 -0.813250 -0.228043
  H 0.338998 0.961505 -0.127897
  H 3.954336 0.866004 1.456141
  H 3.954341 -0.896546 1.356685
  H 1.943340 -0.978816 2.795565
  H 1.943332 0.785867 2.895143
  H 2.755629 -0.641870 -3.095230
  H 2.755630 1.113756 -2.996163
  H 0.392193 1.077889 -2.266389
  H 0.392192 -0.688325 -2.366051
  H 4.994115 0.080730 -0.294934
  H 4.830743 0.252712 -3.342922
  H 6.884807 0.144724 -1.429080
 26
 31.637584
  C 0.695788 0.046217 0.316611
  C 2.412063 0.064351 -0.004794
  C 3.371989 -0.021452 1.515932
  C 2.534185 -0.092118 2.768204
  H 3.196261 -0.140963 3.633973
  C 3.010429 0.132470 -1.211984
  C 2.371479 0.209784 -2.582145
  C 0.861266 0.219958 -2.762420
  H 0.640957 0.280066 -3.827636
  C 4.475896 0.136394 -1.281457
  C 5.231306 0.198177 -2.376503
  O 6.589276 0.197732 -2.368563
  H 0.546476 -0.013916 1.382236
  H 0.262481 -0.826288 -0.146326
  H 0.262480 0.965263 -0.045233
  H 4.002950 0.861364 1.549022
  H 4.002959 -0.902383 1.449504
  H 1.904083 -0.978749 2.773072
  H 1.904074 0.788331 2.872779
  H 2.763767 -0.634483 -3.159175
  H 2.763771 1.113616 -3.060537
  H 0.407116 1.079012 -2.279214
  H 0.407123 -0.687987 -2.378932
  H 5.002017 0.083251 -0.339609
  H 4.867759 0.255361 -3.389926
  H 6.908851 0.146381 -1.458425
