11

H -1.647966 -0.470778 0.638932
C -0.235046 -0.938936 0.797194
C 0.812975 -0.076489 0.106169
C 2.223946 -0.615067 0.341478
H 2.9512615785709206 -0.006702585495344415 -0.216110368182529
H -0.010355 -0.992171 1.867378
H -0.1752787749325253 -1.9199960072397286 0.3032819217891934
H 0.610784 -0.054698 -0.966026
H 0.752798 0.944896 0.489015
H 2.424271 -0.59597 1.417516
H 2.267467 -1.658332 0.022489
