15

C -3.489449 0.9873 -0.138855
C -2.049888 0.586999 -0.021505
C -1.647952 -0.481936 0.645565
C -0.236758 -0.953561 0.811495
C 0.801911 -0.085743 0.112536
H 1.8051096683933279 -0.49670763669033025 0.2988166998157326
H -4.087441 0.168374 -0.535106
H -3.60377 1.855396 -0.783442
H -3.89265 1.235897 0.842661
H -1.336469 1.227984 -0.516831
H -2.38643 -1.105869 1.133692
H -0.006414 -0.996681 1.883408
H -0.170354 -1.975875 0.426967
H 0.591052 -0.067341 -0.960165
H 0.737519 0.936809 0.493964
