 23
 0.000000
  C 0.970917 0.060788 0.190394
  C 2.473775 0.061694 0.149048
  C 3.272042 -0.010344 1.434484
  C 2.490501 -0.095398 2.743715
  C 3.442423 -0.165670 3.933536
  C 3.095446 0.121670 -1.034944
  H 2.581096 0.177594 -1.983064
  C 4.533409 0.133457 -1.192764
  C 5.146586 0.198417 -2.375751
  O 6.491402 0.211719 -2.561752
  H 0.576962 0.008117 1.199308
  H 0.577689 -0.794917 -0.357574
  H 0.579219 0.969969 -0.264741
  H 3.919247 0.874471 1.497389
  H 3.924232 -0.888152 1.383401
  H 1.858491 -0.986047 2.748744
  H 1.851074 0.782348 2.859304
  H 4.082600 -1.042861 3.864049
  H 2.882118 -0.226180 4.864038
  H 4.075114 0.718740 3.974133
  H 5.150489 0.087551 -0.305210
  H 4.631087 0.248054 -3.323289
  H 6.935868 0.166904 -1.705361
 23
 -0.504071
  C 0.997799 -0.050217 0.166428
  C 2.500882 -0.035415 0.174747
  C 3.268294 -0.195981 1.466373
  C 2.487036 0.010830 2.761843
  C 3.411086 -0.088508 3.971653
  C 3.148113 0.141513 -0.984099
  H 2.574145 0.292561 -1.889679
  C 4.574905 0.142780 -1.187797
  C 5.129649 0.350540 -2.384415
  O 6.458101 0.355233 -2.650557
  H 0.579010 -0.211895 1.152747
  H 0.635537 -0.840143 -0.491516
  H 0.613506 0.895430 -0.215903
  H 4.081224 0.534819 1.442313
  H 3.722870 -1.192113 1.490673
  H 1.705142 -0.745457 2.858971
  H 2.013946 0.995753 2.751375
  H 3.883679 -1.068280 4.012604
  H 2.851959 0.060468 4.893017
  H 4.193397 0.666558 3.920640
  H 5.220297 -0.047584 -0.340064
  H 4.550486 0.538455 -3.275996
  H 6.949969 0.185104 -1.839874
 23
 -0.063208
  C 0.984277 -0.198094 0.148286
  C 2.486617 -0.153757 0.172668
  C 3.231133 -0.386571 1.464000
  C 2.534974 0.135600 2.721885
  C 3.433261 -0.022252 3.943551
  C 3.147627 0.157290 -0.950198
  H 2.585691 0.428998 -1.836211
  C 4.573276 0.139007 -1.169102
  C 5.124322 0.515212 -2.325771
  O 6.449225 0.499105 -2.613905
  H 0.568551 -0.469073 1.112027
  H 0.646038 -0.929376 -0.585531
  H 0.575922 0.769498 -0.141604
  H 4.172383 0.154059 1.358737
  H 3.446425 -1.451631 1.593843
  H 1.605830 -0.407121 2.901426
  H 2.289525 1.190953 2.585815
  H 3.679268 -1.070047 4.104042
  H 2.935728 0.353196 4.834929
  H 4.361322 0.530244 3.811713
  H 5.220822 -0.220579 -0.379817
  H 4.545264 0.875065 -3.163212
  H 6.943012 0.173302 -1.850484
 23
 -0.902627
  C 0.961835 -0.336479 0.144394
  C 2.461593 -0.246501 0.171526
  C 3.163200 -0.570649 1.459494
  C 2.640781 0.268428 2.632171
  C 3.473728 0.038435 3.885267
  C 3.128250 0.154285 -0.921498
  H 2.583114 0.524166 -1.782425
  C 4.556586 0.140167 -1.140340
  C 5.119854 0.681054 -2.222136
  O 6.440292 0.671776 -2.513488
  H 0.572610 -0.754542 1.068005
  H 0.641105 -0.973664 -0.679722
  H 0.513992 0.646162 -0.005829
  H 4.220344 -0.318329 1.331931
  H 3.063249 -1.632405 1.704388
  H 1.602336 0.018913 2.847761
  H 2.679383 1.323467 2.356512
  H 3.446032 -1.009646 4.174952
  H 3.092259 0.631966 4.711168
  H 4.511038 0.317951 3.713842
  H 5.193666 -0.358673 -0.420635
  H 4.553525 1.186295 -2.988491
  H 6.922945 0.212810 -1.814443
 23
 3.951324
  C 0.947398 -0.453142 0.107760
  C 2.431098 -0.256952 0.189334
  C 3.139576 -0.635173 1.461608
  C 2.660772 0.285168 2.597658
  C 3.515930 0.111789 3.845329
  C 3.122899 0.333148 -0.796638
  H 2.617880 0.897588 -1.574147
  C 4.520512 0.142169 -1.095905
  C 5.143601 0.783037 -2.089028
  O 6.427238 0.576414 -2.481635
  H 0.568272 -0.927651 1.009057
  H 0.711890 -1.089008 -0.745610
  H 0.419590 0.491865 -0.032422
  H 4.184908 -0.378001 1.289128
  H 2.982409 -1.673314 1.749764
  H 1.620843 0.066534 2.844155
  H 2.710619 1.321303 2.258682
  H 3.484460 -0.919996 4.189684
  H 3.155987 0.751688 4.646552
  H 4.552193 0.371660 3.638944
  H 5.072826 -0.598030 -0.528080
  H 4.660459 1.529489 -2.702008
  H 6.837974 -0.094360 -1.911550
 23
 15.122938
  C 0.939791 -0.520304 -0.023259
  C 2.383060 -0.181169 0.204222
  C 3.089954 -0.618312 1.469691
  C 2.655298 0.287504 2.636388
  C 3.598478 0.138640 3.822051
  C 3.141857 0.499718 -0.673676
  H 2.680182 1.175071 -1.390101
  C 4.477224 0.130248 -1.080538
  C 5.177738 0.798886 -2.001001
  O 6.395895 0.429552 -2.489398
  H 0.538130 -1.080420 0.817492
  H 0.856597 -1.126621 -0.923542
  H 0.325034 0.367742 -0.170206
  H 4.098798 -0.223977 1.257440
  H 3.000944 -1.662914 1.753542
  H 1.644844 0.026924 2.952389
  H 2.636030 1.325401 2.300055
  H 3.626305 -0.892135 4.160281
  H 3.267621 0.760179 4.651501
  H 4.604982 0.435397 3.550127
  H 4.913213 -0.752771 -0.630342
  H 4.811218 1.690149 -2.487306
  H 6.686921 -0.392464 -2.051508
 23
 34.251083
  C 0.911432 -0.568775 -0.133891
  C 2.330671 -0.245821 0.194992
  C 3.014746 -0.652157 1.476691
  C 2.704919 0.323531 2.640828
  C 3.695040 0.123614 3.777660
  C 3.158326 0.530997 -0.551453
  H 2.767903 1.309955 -1.210483
  C 4.456261 0.118032 -1.023579
  C 5.168365 0.803775 -1.923055
  O 6.353609 0.410928 -2.446029
  H 0.464083 -1.177940 0.645579
  H 0.871062 -1.107468 -1.080477
  H 0.308770 0.334375 -0.261817
  H 3.949947 -0.136051 1.173806
  H 2.850758 -1.666003 1.810341
  H 1.695027 0.137572 3.033631
  H 2.735905 1.355384 2.284442
  H 3.657707 -0.902814 4.139089
  H 3.457387 0.786889 4.606568
  H 4.708616 0.331889 3.450708
  H 4.849597 -0.819296 -0.642194
  H 4.846503 1.747389 -2.335746
  H 6.608975 -0.432701 -2.059614
 23
 60.249074
  C 0.926751 -0.622333 -0.303669
  C 2.256129 -0.221486 0.218712
  C 2.877452 -0.622185 1.504286
  C 2.710415 0.331025 2.717837
  C 3.810409 0.122811 3.746606
  C 3.177449 0.611428 -0.414746
  H 2.857365 1.509017 -0.934599
  C 4.421780 0.117892 -0.959314
  C 5.144949 0.784144 -1.870158
  O 6.284539 0.322299 -2.461232
  H 0.381757 -1.203412 0.436475
  H 1.045362 -1.210229 -1.214140
  H 0.325373 0.255324 -0.546023
  H 3.791264 0.023785 1.134990
  H 2.771696 -1.663767 1.818001
  H 1.732124 0.138401 3.175571
  H 2.691513 1.369450 2.394239
  H 3.818091 -0.908941 4.085311
  H 3.665487 0.766980 4.604792
  H 4.786470 0.355160 3.311356
  H 4.756453 -0.859806 -0.621998
  H 4.854809 1.744293 -2.271920
  H 6.496308 -0.552092 -2.107237
 23
 79.504564
  C 0.938462 -0.677115 -0.341285
  C 2.245297 -0.285419 0.253835
  C 2.775810 -0.623797 1.521655
  C 2.710605 0.345235 2.704363
  C 3.850063 0.127561 3.694158
  C 3.207665 0.614718 -0.306129
  H 2.855561 1.504353 -0.840214
  C 4.429976 0.090540 -0.937650
  C 5.146571 0.771505 -1.827045
  O 6.267452 0.314187 -2.454457
  H 0.382876 -1.321466 0.334930
  H 1.068385 -1.190883 -1.294790
  H 0.349988 0.220340 -0.535947
  H 3.791491 0.264446 0.958898
  H 2.612108 -1.644828 1.892664
  H 1.758031 0.173099 3.220557
  H 2.715232 1.382590 2.360872
  H 3.847872 -0.897673 4.057376
  H 3.745948 0.793462 4.547902
  H 4.811689 0.321115 3.222302
  H 4.733879 -0.912149 -0.658201
  H 4.900386 1.773070 -2.144366
  H 6.459606 -0.580874 -2.150526
 23
 60.149402
  C 1.075043 -0.726690 -0.381010
  C 2.296852 -0.297588 0.339265
  C 2.711802 -0.632026 1.590508
  C 2.672970 0.337271 2.752969
  C 3.775265 0.106780 3.779691
  C 3.311667 0.684138 -0.176265
  H 2.943200 1.595289 -0.635888
  C 4.449987 0.098193 -0.960969
  C 5.088946 0.746583 -1.927635
  O 6.123991 0.253975 -2.661614
  H 0.472968 -1.381382 0.238462
  H 1.295412 -1.236797 -1.322648
  H 0.498677 0.169738 -0.622767
  H 3.877416 0.504786 0.834119
  H 2.468281 -1.632320 1.977476
  H 1.701861 0.199057 3.236739
  H 2.722307 1.373189 2.399150
  H 3.739914 -0.915345 4.150871
  H 3.659877 0.781841 4.622840
  H 4.757920 0.277363 3.334280
  H 4.725146 -0.923398 -0.719559
  H 4.848262 1.757741 -2.221871
  H 6.282098 -0.658929 -2.412333
 23
 35.508273
  C 1.207858 -0.759949 -0.460040
  C 2.346708 -0.277793 0.368361
  C 2.612347 -0.599204 1.647548
  C 2.685406 0.365698 2.802947
  C 3.782700 0.039762 3.816958
  C 3.325366 0.762370 -0.137541
  H 2.910063 1.621630 -0.649766
  C 4.419720 0.128101 -0.959422
  C 4.992895 0.710058 -2.001349
  O 6.007605 0.188268 -2.746104
  H 0.589510 -1.457271 0.099663
  H 1.521832 -1.236218 -1.391747
  H 0.613279 0.113456 -0.723546
  H 3.883814 0.807159 0.822332
  H 2.334090 -1.585274 2.034277
  H 1.712975 0.298291 3.297555
  H 2.812392 1.392653 2.452841
  H 3.660154 -0.972424 4.196782
  H 3.745844 0.728796 4.658076
  H 4.764937 0.114901 3.354821
  H 4.733820 -0.861096 -0.648688
  H 4.716210 1.691473 -2.356033
  H 6.246235 -0.679887 -2.398250
 23
 16.605708
  C 1.407835 -0.812152 -0.530595
  C 2.408119 -0.232800 0.414387
  C 2.501633 -0.532571 1.709678
  C 2.704679 0.419873 2.856734
  C 3.736913 -0.064087 3.875785
  C 3.359563 0.826527 -0.100814
  H 2.894052 1.646990 -0.637007
  C 4.399176 0.165147 -0.967767
  C 4.860423 0.679775 -2.096961
  O 5.823791 0.132870 -2.887401
  H 0.771962 -1.537301 -0.029384
  H 1.869370 -1.285512 -1.399111
  H 0.791083 0.009019 -0.892746
  H 3.916514 1.072504 0.810549
  H 2.096588 -1.469979 2.090464
  H 1.729816 0.497473 3.345920
  H 2.979148 1.418296 2.512001
  H 3.466467 -1.048019 4.253133
  H 3.797649 0.622369 4.717555
  H 4.721076 -0.133006 3.416637
  H 4.770678 -0.788303 -0.611908
  H 4.515922 1.620567 -2.500278
  H 6.119722 -0.700801 -2.502078
 23
 5.528739
  C 1.555414 -0.870565 -0.571016
  C 2.385236 -0.138743 0.437799
  C 2.334233 -0.395475 1.737905
  C 2.737486 0.490285 2.882450
  C 3.724810 -0.193929 3.828151
  C 3.314517 0.915360 -0.115358
  H 2.802931 1.645572 -0.739605
  C 4.389373 0.233207 -0.915493
  C 4.772508 0.615065 -2.123153
  O 5.755273 0.040387 -2.867021
  H 0.929177 -1.620245 -0.094496
  H 2.172105 -1.353880 -1.329072
  H 0.915914 -0.149455 -1.078749
  H 3.811502 1.374882 0.743054
  H 1.835268 -1.284413 2.111757
  H 1.820728 0.721373 3.433638
  H 3.159555 1.436321 2.543267
  H 3.308466 -1.125787 4.205086
  H 3.953025 0.448801 4.675620
  H 4.652658 -0.420332 3.307055
  H 4.856753 -0.620666 -0.439782
  H 4.332092 1.453150 -2.642959
  H 6.133740 -0.702716 -2.380756
 23
 1.701592
  C 1.659993 -0.900414 -0.550113
  C 2.381009 -0.064113 0.466110
  C 2.228672 -0.268154 1.767763
  C 2.774482 0.529542 2.914005
  C 3.686857 -0.322102 3.797090
  C 3.294445 0.979595 -0.126853
  H 2.741349 1.641654 -0.794845
  C 4.401265 0.311643 -0.889338
  C 4.690282 0.565956 -2.155621
  O 5.689004 -0.008914 -2.877109
  H 1.015336 -1.632987 -0.071734
  H 2.368055 -1.420892 -1.194271
  H 1.050232 -0.258711 -1.185423
  H 3.744259 1.563646 0.677623
  H 1.651314 -1.121321 2.106290
  H 1.928056 0.879814 3.513267
  H 3.320832 1.409491 2.575130
  H 3.152954 -1.194110 4.168738
  H 4.041656 0.253839 4.648996
  H 4.548381 -0.665884 3.228589
  H 4.976912 -0.420455 -0.335493
  H 4.144913 1.283659 -2.750650
  H 6.162507 -0.642586 -2.323830
 23
 1.075598
  C 1.696006 -0.914927 -0.532226
  C 2.379951 -0.036258 0.474381
  C 2.204098 -0.216876 1.777202
  C 2.808942 0.536205 2.921658
  C 3.672881 -0.387153 3.780779
  C 3.274467 1.010702 -0.142032
  H 2.694361 1.621644 -0.836173
  C 4.413155 0.368358 -0.875601
  C 4.652814 0.534494 -2.166635
  O 5.671921 -0.028753 -2.867945
  H 1.000222 -1.598360 -0.052141
  H 2.433042 -1.497177 -1.085382
  H 1.151247 -0.307849 -1.253552
  H 3.677362 1.662039 0.634716
  H 1.547122 -1.018333 2.097110
  H 1.999448 0.941246 3.539976
  H 3.413701 1.375488 2.577822
  H 3.083376 -1.219310 4.158197
  H 4.086106 0.154476 4.626965
  H 4.493495 -0.789177 3.193299
  H 5.052664 -0.273837 -0.281043
  H 4.042107 1.158842 -2.802549
  H 6.204277 -0.577289 -2.278507
