 13
 0.000000
  C 0.959366 -0.017047 -0.005664
  C 2.455846 0.002532 0.013263
  C 3.168413 0.813624 0.797182
  C 4.610125 0.832831 0.815744
  C 5.321929 1.642775 1.598561
  H 6.395711 1.651750 1.607234
  H 0.598401 -0.755422 -0.719302
  H 0.563392 0.954437 -0.298551
  H 0.563391 -0.276678 0.975231
  H 2.957972 -0.686193 -0.652397
  H 2.656632 1.499431 1.460020
  H 5.115294 0.144408 0.150385
  H 4.822338 2.330902 2.263633
 13
 13.046032
  C 0.914045 -0.048585 -0.036146
  C 2.401698 -0.044328 -0.032027
  C 3.210858 0.858358 0.840417
  C 4.638802 0.861668 0.843615
  C 5.368754 1.665327 1.620356
  H 6.443667 1.659866 1.615078
  H 0.538543 -0.782751 -0.745716
  H 0.524415 0.928479 -0.321866
  H 0.524413 -0.300864 0.950083
  H 2.901625 -0.730030 -0.694765
  H 2.704603 1.542690 1.501828
  H 5.128904 0.167292 0.172503
  H 4.888973 2.359973 2.291732
 13
 39.263635
  C 0.894819 -0.074391 -0.061085
  C 2.362465 -0.092164 -0.078262
  C 3.245384 0.912597 0.892835
  C 4.643309 0.889409 0.870421
  C 5.388428 1.670135 1.625001
  H 6.463852 1.638401 1.594339
  H 0.498158 -0.802389 -0.764695
  H 0.511467 0.912661 -0.326272
  H 0.511465 -0.305802 0.934427
  H 2.905802 -0.752290 -0.716277
  H 2.702771 1.574607 1.532678
  H 5.114833 0.189557 0.194018
  H 4.944262 2.373854 2.305151
 13
 68.089498
  C 0.846996 -0.104762 -0.090439
  C 2.315947 -0.141992 -0.126420
  C 3.271746 0.965140 0.943622
  C 4.656192 0.914440 0.894620
  C 5.455707 1.694526 1.648574
  H 6.526423 1.631719 1.587875
  H 0.430984 -0.829849 -0.791236
  H 0.467526 0.888428 -0.350295
  H 0.467525 -0.330637 0.911022
  H 2.916734 -0.781626 -0.744628
  H 2.675393 1.605123 1.562177
  H 5.103994 0.206522 0.210416
  H 5.049375 2.411935 2.341953
 13
 96.584988
  C 0.797535 -0.137579 -0.122157
  C 2.256915 -0.188579 -0.171447
  C 3.310300 1.009797 0.986781
  C 4.691327 0.943851 0.923044
  C 5.510507 1.717350 1.670635
  H 6.578860 1.641719 1.597541
  H 0.368581 -0.858530 -0.818957
  H 0.425556 0.857872 -0.377944
  H 0.425553 -0.359310 0.881429
  H 2.855671 -0.827368 -0.788838
  H 2.712865 1.650258 1.605798
  H 5.125703 0.231125 0.234194
  H 5.120405 2.438989 2.368102
 13
 124.213292
  C 0.750625 -0.169802 -0.151328
  C 2.194434 -0.233473 -0.219550
  C 3.362576 1.056787 1.034751
  C 4.733111 0.967375 0.948510
  C 5.556791 1.751291 1.698035
  H 6.630627 1.649579 1.606982
  H 0.297725 -0.887970 -0.846618
  H 0.371344 0.824427 -0.407526
  H 0.378588 -0.390021 0.853394
  H 2.792163 -0.876472 -0.838579
  H 2.760862 1.691214 1.644496
  H 5.148949 0.251229 0.251907
  H 5.193047 2.472030 2.400757
 13
 145.616219
  C 0.699933 -0.204102 -0.184740
  C 2.137777 -0.279530 -0.264804
  C 3.405249 1.100645 1.076958
  C 4.758264 0.998302 0.977822
  C 5.610819 1.771488 1.718639
  H 6.679804 1.657478 1.615132
  H 0.234585 -0.918531 -0.875011
  H 0.331213 0.795416 -0.435948
  H 0.338416 -0.419540 0.825097
  H 2.731740 -0.923830 -0.884730
  H 2.803548 1.734148 1.685827
  H 5.160537 0.277096 0.277576
  H 5.262803 2.496928 2.424467
 13
 162.919714
  C 0.640290 -0.241308 -0.220909
  C 2.081079 -0.325311 -0.310049
  C 3.445556 1.145553 1.120451
  C 4.794672 1.030236 1.008111
  C 5.672100 1.792415 1.739545
  H 6.735616 1.665312 1.623682
  H 0.162249 -0.952693 -0.906881
  H 0.279658 0.763018 -0.467771
  H 0.287207 -0.452529 0.793757
  H 2.672175 -0.970233 -0.929933
  H 2.839102 1.777461 1.727379
  H 5.185102 0.304838 0.305033
  H 5.338890 2.523760 2.450084
 13
 176.587015
  C 0.589073 -0.277056 -0.255678
  C 2.024279 -0.368110 -0.353028
  C 3.489575 1.190901 1.165071
  C 4.822038 1.062111 1.038312
  C 5.722064 1.810388 1.757061
  H 6.781476 1.667381 1.627342
  H 0.097398 -0.984658 -0.936396
  H 0.237295 0.730655 -0.497873
  H 0.245920 -0.483745 0.762496
  H 2.610889 -1.016924 -0.975379
  H 2.880069 1.820080 1.768164
  H 5.197771 0.332145 0.332204
  H 5.407057 2.545449 2.470534
 13
 186.804033
  C 0.523176 -0.319414 -0.296852
  C 1.963789 -0.410650 -0.398129
  C 3.527321 1.235745 1.210730
  C 4.861919 1.094408 1.067927
  C 5.791711 1.834758 1.779408
  H 6.843950 1.673472 1.637967
  H 0.017298 -1.024600 -0.972191
  H 0.177654 0.691842 -0.534565
  H 0.189442 -0.521750 0.725761
  H 2.543356 -1.064687 -1.022169
  H 2.910539 1.864144 1.809520
  H 5.223702 0.358933 0.358992
  H 5.494931 2.575841 2.498961
 13
 190.621580
  C 0.456487 -0.391334 -0.365958
  C 1.905685 -0.408376 -0.416020
  C 3.571325 1.310599 1.294733
  C 4.892655 1.159737 1.114111
  C 5.873876 1.853582 1.791144
  H 6.914804 1.637192 1.629502
  H -0.076202 -1.093244 -1.025613
  H 0.122507 0.624872 -0.599151
  H 0.152988 -0.591427 0.666224
  H 2.418276 -1.113508 -1.067557
  H 2.942757 1.945044 1.870315
  H 5.222139 0.407808 0.403758
  H 5.623208 2.595245 2.523386
 13
 191.536625
  C 0.387604 -0.446024 -0.416279
  C 1.836937 -0.441102 -0.451677
  C 3.618852 1.357845 1.339265
  C 4.933176 1.198424 1.139796
  C 5.939104 1.872209 1.810126
  H 6.973732 1.630296 1.642691
  H -0.151134 -1.147824 -1.069842
  H 0.057425 0.570539 -0.644926
  H 0.096269 -0.642080 0.618450
  H 2.313148 -1.171292 -1.118945
  H 2.993571 2.002862 1.912803
  H 5.243889 0.441562 0.426164
  H 5.708361 2.613018 2.554191
 13
 191.226402
  C 0.314565 -0.502862 -0.465067
  C 1.767432 -0.481187 -0.487846
  C 3.666558 1.404483 1.375014
  C 4.977641 1.239767 1.158005
  C 5.999731 1.887822 1.828536
  H 7.027094 1.618110 1.664586
  H -0.230286 -1.205329 -1.113410
  H -0.012316 0.515244 -0.689571
  H 0.033222 -0.693189 0.573339
  H 2.209504 -1.230372 -1.167795
  H 3.048008 2.060144 1.945013
  H 5.273518 0.481481 0.439001
  H 5.784434 2.617829 2.587699
 13
 178.144552
  C 0.437794 -0.415727 -0.347757
  C 1.880650 -0.385246 -0.501688
  C 3.693209 1.167161 1.255523
  C 4.978350 1.228795 0.857186
  C 5.759750 1.867204 1.802403
  H 6.718653 1.455478 2.083135
  H -0.146951 -1.112107 -0.958592
  H 0.056138 0.603177 -0.443968
  H 0.292858 -0.639300 0.716544
  H 2.250704 -1.176333 -1.173478
  H 3.199568 2.018582 1.708986
  H 5.403691 0.514358 0.169258
  H 5.334691 2.585899 2.479951
