 23
 0.000000
  C 0.975790 0.137332 0.393142
  C 2.453972 0.138831 0.396445
  H 3.017345 0.478023 1.240518
  C 3.074760 -0.323868 -0.755623
  C 4.452396 -0.411652 -0.974602
  C 5.123831 -0.863395 -2.100714
  C 4.621920 -1.386396 -3.404454
  C 3.129954 -1.502980 -3.695876
  C 2.901042 -2.064737 -5.096300
  O 6.448567 -0.861790 -2.097024
  H 0.536390 0.506813 1.312870
  H 0.606624 -0.875729 0.225913
  H 0.606339 0.752985 -0.428456
  H 2.419633 -0.642347 -1.548686
  H 5.073532 -0.080521 -0.149771
  H 5.075895 -2.376004 -3.531813
  H 5.076265 -0.759449 -4.180462
  H 2.655656 -0.522022 -3.641480
  H 2.655252 -2.174151 -2.978669
  H 3.338077 -1.417822 -5.854009
  H 1.834884 -2.144599 -5.296051
  H 3.337677 -3.056130 -5.196764
  H 6.820588 -0.526463 -1.260938
 23
 0.000000
  C 1.016513 0.139533 0.398628
  C 2.494667 0.143358 0.407720
  H 3.054196 0.483429 1.253994
  C 3.135672 -0.329408 -0.769429
  C 4.445565 -0.423851 -1.005014
  C 5.079835 -0.858776 -2.089209
  C 4.600399 -1.384694 -3.400218
  C 3.113628 -1.510130 -3.713695
  C 2.908820 -2.073176 -5.117334
  O 6.343407 -0.838435 -2.038809
  H 0.572934 0.508315 1.316629
  H 0.649600 -0.874107 0.229953
  H 0.649314 0.754610 -0.424410
  H 2.484158 -0.648913 -1.565051
  H 5.079867 -0.096198 -0.188856
  H 5.062085 -2.371581 -3.520799
  H 5.062452 -0.755023 -4.169441
  H 2.632754 -0.532010 -3.666370
  H 2.632355 -2.184142 -3.003566
  H 3.353175 -1.423641 -5.868517
  H 1.846228 -2.159364 -5.332846
  H 3.352780 -3.061952 -5.211279
  H 6.665986 -0.479916 -1.144883
 23
 0.000000
  C 1.055285 0.141667 0.403947
  C 2.533367 0.148376 0.420220
  H 3.088113 0.489530 1.269203
  C 3.197591 -0.335204 -0.783877
  C 4.441875 -0.435663 -1.034458
  C 5.039865 -0.854773 -2.079238
  C 4.581312 -1.383267 -3.396669
  C 3.099679 -1.516857 -3.730459
  C 2.917194 -2.080966 -5.136751
  O 6.241495 -0.818071 -1.988049
  H 0.606531 0.509573 1.319783
  H 0.691173 -0.872685 0.233490
  H 0.690889 0.756035 -0.420865
  H 2.550574 -0.655974 -1.582655
  H 5.089884 -0.111749 -0.227626
  H 5.050020 -2.367598 -3.510885
  H 5.050382 -0.751038 -4.159520
  H 2.612835 -0.541396 -3.689753
  H 2.612442 -2.193531 -3.026957
  H 3.368213 -1.428971 -5.881807
  H 1.858138 -2.172983 -5.366782
  H 3.367824 -3.067285 -5.224577
  H 6.507731 -0.435557 -1.034286
 23
 0.000000
  C 1.091454 0.143771 0.409191
  C 2.569392 0.154065 0.434389
  H 3.118173 0.496551 1.286707
  C 3.260627 -0.341207 -0.798841
  C 4.441900 -0.446937 -1.062561
  C 5.004712 -0.851470 -2.071009
  C 4.564992 -1.382178 -3.393960
  C 3.088246 -1.523065 -3.745925
  C 2.925838 -2.088023 -5.154339
  O 6.143797 -0.800870 -1.945175
  H 0.636288 0.510576 1.322300
  H 0.730839 -0.871458 0.236539
  H 0.730557 0.757265 -0.417807
  H 2.619225 -0.663535 -1.601511
  H 5.104055 -0.127013 -0.265679
  H 5.039918 -2.364181 -3.502382
  H 5.040275 -0.747618 -4.151010
  H 2.596132 -0.550018 -3.711232
  H 2.595746 -2.202156 -3.048443
  H 3.382755 -1.433788 -5.893817
  H 1.870154 -2.185256 -5.397362
  H 3.382374 -3.072105 -5.236594
  H 6.345805 -0.393862 -0.930324
 23
 0.000000
  C 1.123962 0.146079 0.414939
  C 2.601634 0.160814 0.451202
  H 3.142987 0.504933 1.307605
  C 3.324856 -0.347320 -0.814084
  C 4.446279 -0.457512 -1.088922
  C 4.975360 -0.849066 -2.065022
  C 4.551904 -1.381604 -3.392537
  C 3.079572 -1.528751 -3.760089
  C 2.934459 -2.094360 -5.170130
  O 6.051479 -0.787123 -1.910908
  H 0.660871 0.511497 1.324616
  H 0.767703 -0.870227 0.239595
  H 0.767423 0.758501 -0.414740
  H 2.690452 -0.671563 -1.621533
  H 5.122899 -0.141812 -0.302571
  H 5.032115 -2.361581 -3.495913
  H 5.032465 -0.745015 -4.144535
  H 2.582992 -0.557802 -3.730619
  H 2.582614 -2.209943 -3.067837
  H 3.396386 -1.438174 -5.904751
  H 1.881824 -2.196067 -5.424296
  H 3.396013 -3.076493 -5.247534
  H 6.180455 -0.355302 -0.834176
 23
 0.000000
  C 1.150768 0.149164 0.422625
  C 2.627982 0.169357 0.472486
  H 3.160157 0.515452 1.333833
  C 3.389897 -0.353378 -0.829189
  C 4.455749 -0.467113 -1.112856
  C 4.953423 -0.848008 -2.062390
  C 4.542887 -1.381947 -3.393397
  C 3.074187 -1.534038 -3.773258
  C 2.942785 -2.100110 -5.184457
  O 5.966906 -0.777466 -1.886834
  H 0.677977 0.512847 1.328000
  H 0.799893 -0.868446 0.244017
  H 0.799619 0.760286 -0.410306
  H 2.764151 -0.679944 -1.642440
  H 5.146856 -0.155795 -0.337429
  H 5.027239 -2.360301 -3.492736
  H 5.027583 -0.743734 -4.141353
  H 2.574115 -0.564765 -3.747959
  H 2.573744 -2.216908 -3.085182
  H 3.408636 -1.442363 -5.915195
  H 1.892662 -2.205353 -5.447425
  H 3.408270 -3.080684 -5.257983
  H 6.013819 -0.320646 -0.747755
 23
 0.000000
  C 1.169778 0.153900 0.434424
  C 2.646225 0.180848 0.501115
  H 3.166963 0.529344 1.368469
  C 3.456740 -0.359321 -0.844008
  C 4.471009 -0.475544 -1.133871
  C 4.940195 -0.848848 -2.064489
  C 4.538645 -1.383734 -3.397855
  C 3.072535 -1.539251 -3.786241
  C 2.950654 -2.105617 -5.198176
  O 5.891242 -0.772469 -1.874376
  H 0.685039 0.515384 1.334349
  H 0.825619 -0.865299 0.251842
  H 0.825351 0.763439 -0.402467
  H 2.841802 -0.688720 -1.664335
  H 5.176437 -0.168711 -0.369628
  H 5.025849 -2.360954 -3.494374
  H 5.026186 -0.744385 -4.142988
  H 2.570063 -0.571148 -3.763852
  H 2.569700 -2.223293 -3.101079
  H 3.419205 -1.446778 -5.926199
  H 1.902325 -2.213309 -5.467239
  H 3.418847 -3.085101 -5.268992
  H 5.845585 -0.290168 -0.671745
 23
 0.000000
  C 1.178680 0.160966 0.452026
  C 2.653907 0.196061 0.539018
  H 3.160736 0.547384 1.413447
  C 3.525162 -0.364932 -0.857997
  C 4.492081 -0.482341 -1.150813
  C 4.936894 -0.852054 -2.072484
  C 4.539724 -1.387393 -3.406981
  C 3.074895 -1.544578 -3.799510
  C 2.957652 -2.111080 -5.211784
  O 5.827295 -0.772647 -1.874813
  H 0.679619 0.519726 1.345194
  H 0.842695 -0.860110 0.264753
  H 0.842435 0.768634 -0.389542
  H 2.923389 -0.697684 -1.686698
  H 5.211093 -0.179913 -0.397550
  H 5.028311 -2.364058 -3.502122
  H 5.028641 -0.747487 -4.150732
  H 2.571260 -0.577049 -3.778542
  H 2.570904 -2.229194 -3.115772
  H 3.427508 -1.451705 -5.938480
  H 1.910210 -2.219964 -5.483809
  H 3.427158 -3.090029 -5.281276
  H 5.679522 -0.264916 -0.608759
 23
 0.000000
  C 1.174314 0.171566 0.478434
  C 2.647683 0.216269 0.589372
  H 3.137947 0.570834 1.471908
  C 3.595251 -0.369989 -0.870602
  C 4.519144 -0.487086 -1.162637
  C 4.944980 -0.858428 -2.088373
  C 4.546858 -1.393669 -3.422626
  C 3.081748 -1.550498 -3.814253
  C 2.963496 -2.116969 -5.226457
  O 5.778540 -0.778714 -1.889928
  H 0.658483 0.527010 1.363370
  H 0.848075 -0.851667 0.285768
  H 0.847826 0.777083 -0.368512
  H 3.009194 -0.706606 -1.708957
  H 5.250448 -0.188773 -0.419633
  H 5.035150 -2.370452 -3.518070
  H 5.035473 -0.753881 -4.166679
  H 2.578360 -0.582846 -3.792973
  H 2.578012 -2.234992 -3.130205
  H 3.433066 -1.457708 -5.953442
  H 1.915860 -2.225600 -5.497837
  H 3.432723 -3.096033 -5.296239
  H 5.520728 -0.245424 -0.560131
 23
 0.000000
  C 1.154059 0.186572 0.515821
  C 2.624745 0.242260 0.654134
  H 3.095858 0.600403 1.545618
  C 3.666894 -0.374258 -0.881241
  C 4.551719 -0.489384 -1.168356
  C 4.964997 -0.868520 -2.113531
  C 4.560301 -1.403078 -3.446082
  C 3.093273 -1.557415 -3.831482
  C 2.968061 -2.123679 -5.243172
  O 5.748109 -0.790873 -1.920229
  H 0.619222 0.538088 1.390998
  H 0.839101 -0.839052 0.317177
  H 0.838864 0.789704 -0.337087
  H 3.099051 -0.715176 -1.730333
  H 5.293408 -0.194650 -0.434272
  H 5.046523 -2.380690 -3.543598
  H 5.046838 -0.764118 -4.192206
  H 2.591625 -0.588909 -3.808066
  H 2.591284 -2.241056 -3.145298
  H 3.435659 -1.465214 -5.972148
  H 1.919097 -2.230527 -5.510100
  H 3.435323 -3.103539 -5.314946
  H 5.375646 -0.231791 -0.526106
 23
 0.000000
  C 1.116534 0.206400 0.565221
  C 2.583614 0.274039 0.733322
  H 3.033626 0.635921 1.634153
  C 3.739079 -0.377512 -0.889340
  C 4.588512 -0.489051 -1.167513
  C 4.996155 -0.882503 -2.148383
  C 4.579448 -1.415780 -3.477744
  C 3.108993 -1.565543 -3.851728
  C 2.971048 -2.131396 -5.262398
  O 5.738307 -0.808729 -1.964729
  H 0.561216 0.553470 1.429350
  H 0.814023 -0.821735 0.360303
  H 0.813799 0.807027 -0.293947
  H 3.191361 -0.722962 -1.749750
  H 5.338181 -0.197132 -0.440444
  H 5.061852 -2.394900 -3.579027
  H 5.062160 -0.778329 -4.227635
  H 2.610559 -0.595479 -3.824422
  H 2.610225 -2.247626 -3.161654
  H 3.435014 -1.474380 -5.994994
  H 1.919711 -2.234974 -5.521163
  H 3.434685 -3.112706 -5.337792
  H 5.252476 -0.223457 -0.505290
 23
 0.000000
  C 1.093411 0.215781 0.588594
  C 2.558705 0.288624 0.769664
  H 2.999447 0.652084 1.674440
  C 3.765321 -0.377912 -0.890332
  C 4.602098 -0.487447 -1.163509
  C 5.010284 -0.888314 -2.162868
  C 4.588310 -1.421019 -3.490801
  C 3.116379 -1.568769 -3.859762
  C 2.972844 -2.134430 -5.269956
  O 5.739625 -0.816269 -1.983521
  H 0.529242 0.560862 1.447779
  H 0.796374 -0.813418 0.381018
  H 0.796155 0.815346 -0.273226
  H 3.226461 -0.725289 -1.755552
  H 5.353658 -0.196204 -0.438123
  H 5.069026 -2.400798 -3.593730
  H 5.069331 -0.784227 -4.242338
  H 2.619368 -0.598024 -3.830756
  H 2.619037 -2.250171 -3.167988
  H 3.435206 -1.478048 -6.004134
  H 1.920486 -2.236569 -5.525130
  H 3.434879 -3.116373 -5.346932
  H 5.210086 -0.220291 -0.497383
 23
 0.000000
  C 0.977361 0.265112 0.711498
  C 2.432002 0.363161 0.955400
  H 2.827069 0.733810 1.878150
  C 3.917356 -0.380283 -0.896210
  C 4.686507 -0.479008 -1.142433
  C 5.096837 -0.925950 -2.256674
  C 4.635958 -1.454162 -3.573413
  C 3.153732 -1.586901 -3.904932
  C 2.968766 -2.150885 -5.310957
  O 5.771997 -0.865048 -2.105092
  H 0.370897 0.600059 1.545480
  H 0.707343 -0.768974 0.491709
  H 0.707153 0.859801 -0.162509
  H 3.422299 -0.736564 -1.783666
  H 5.448496 -0.191555 -0.426486
  H 5.103929 -2.438760 -3.688366
  H 5.104220 -0.822189 -4.336976
  H 2.667507 -0.611161 -3.863463
  H 2.667187 -2.263306 -3.200692
  H 3.419015 -1.499136 -6.056696
  H 1.909302 -2.242292 -5.539364
  H 3.418699 -3.137460 -5.399491
  H 5.027447 -0.219435 -0.495175
