 16
 0.000000
  H 1.444947 0.114970 0.340747
  C 2.525841 0.112863 0.333759
  C 3.204813 0.595248 1.530010
  H 2.503615 0.902884 2.296072
  C 3.144814 -0.346985 -0.809855
  C 4.537708 -0.414196 -0.978067
  C 5.179188 -0.868774 -2.112355
  C 4.570524 -1.357967 -3.335956
  H 3.488167 -1.355823 -3.334416
  H 6.261236 -0.863870 -2.098205
  H 3.866472 1.430986 1.288720
  H 3.868402 -0.173086 1.934530
  H 2.508841 -0.672918 -1.620694
  H 5.157656 -0.084890 -0.156040
  H 4.942301 -2.366076 -3.542878
  H 4.944599 -0.772218 -4.181188
 16
 4.884460
  H 1.437749 0.101245 0.305751
  C 2.517325 0.118646 0.347329
  C 3.156770 0.607089 1.559855
  H 2.433571 0.908170 2.310860
  C 3.187606 -0.319259 -0.742213
  C 4.561236 -0.409732 -0.967741
  C 5.165001 -0.876229 -2.131086
  C 4.528856 -1.364748 -3.352419
  H 3.443279 -1.361256 -3.347587
  H 6.248993 -0.881436 -2.141818
  H 3.819608 1.447800 1.332499
  H 3.821777 -0.155532 1.977013
  H 2.766270 -0.680451 -1.640964
  H 5.234189 -0.092097 -0.174716
  H 4.893769 -2.375314 -3.563560
  H 4.896137 -0.780704 -4.202678
 16
 15.024772
  H 1.428156 0.091905 0.284609
  C 2.509069 0.124081 0.361060
  C 3.112042 0.621072 1.593462
  H 2.370430 0.913404 2.325868
  C 3.231995 -0.308309 -0.715386
  C 4.589433 -0.413917 -0.976094
  C 5.150206 -0.885045 -2.151916
  C 4.494917 -1.366023 -3.356123
  H 3.415077 -1.360291 -3.346247
  H 6.231682 -0.901042 -2.188818
  H 3.771592 1.463539 1.381313
  H 3.776061 -0.130636 2.021849
  H 2.990261 -0.689002 -1.663567
  H 5.305424 -0.114066 -0.224804
  H 4.851823 -2.375129 -3.569345
  H 4.854558 -0.783838 -4.206389
 16
 28.872574
  H 1.420481 0.080164 0.275636
  C 2.498203 0.124099 0.368716
  C 3.079837 0.631422 1.608289
  H 2.326206 0.917993 2.331508
  C 3.244959 -0.301400 -0.691204
  C 4.604180 -0.422528 -0.980666
  C 5.142660 -0.891945 -2.163071
  C 4.470597 -1.366489 -3.364972
  H 3.384977 -1.357144 -3.347979
  H 6.223018 -0.913942 -2.213262
  H 3.737267 1.481979 1.400038
  H 3.750831 -0.115030 2.046060
  H 3.162197 -0.690231 -1.663804
  H 5.363877 -0.132885 -0.240054
  H 4.821251 -2.378219 -3.584556
  H 4.825758 -0.781246 -4.217009
 16
 43.162939
  H 1.412569 0.019200 0.309199
  C 2.488161 0.105435 0.388155
  C 3.058724 0.666965 1.604526
  H 2.302442 0.936658 2.329385
  C 3.241542 -0.311133 -0.667309
  C 4.612695 -0.470416 -0.973223
  C 5.143831 -0.909830 -2.163605
  C 4.457323 -1.350142 -3.382363
  H 3.368795 -1.331251 -3.356656
  H 6.226104 -0.939160 -2.217200
  H 3.679176 1.534482 1.380306
  H 3.757845 -0.047121 2.040566
  H 3.292139 -0.687069 -1.648534
  H 5.386970 -0.228577 -0.236954
  H 4.790995 -2.362882 -3.632817
  H 4.817226 -0.743043 -4.219940
 16
 52.696120
  H 1.437420 -0.064848 0.342409
  C 2.510887 0.073944 0.393101
  C 3.048131 0.726949 1.616638
  H 2.257736 0.961827 2.325353
  C 3.243875 -0.322331 -0.626576
  C 4.619190 -0.546266 -1.002173
  C 5.163638 -0.937774 -2.178017
  C 4.463079 -1.329429 -3.412298
  H 3.372248 -1.289510 -3.347587
  H 6.244877 -0.978426 -2.235991
  H 3.600806 1.635058 1.384465
  H 3.763449 0.043356 2.071828
  H 3.365419 -0.701055 -1.645822
  H 5.371293 -0.351595 -0.222793
  H 4.749472 -2.339794 -3.701552
  H 4.811245 -0.692417 -4.223990
 16
 59.031209
  H 1.443751 -0.085456 0.393918
  C 2.521138 0.067936 0.421865
  C 3.034169 0.762315 1.645141
  H 2.239471 0.984908 2.319587
  C 3.243467 -0.330859 -0.590398
  C 4.616701 -0.592362 -1.040592
  C 5.177940 -0.958267 -2.203707
  C 4.476843 -1.321536 -3.459252
  H 3.385508 -1.261529 -3.381696
  H 6.254849 -1.008855 -2.250196
  H 3.539236 1.676980 1.378757
  H 3.756114 0.114502 2.136201
  H 3.408498 -0.719297 -1.612079
  H 5.333256 -0.417560 -0.214304
  H 4.746268 -2.333052 -3.758030
  H 4.820708 -0.670059 -4.262770
 16
 64.300810
  H 1.444096 -0.131231 0.442643
  C 2.514474 0.053754 0.448644
  C 3.028185 0.800943 1.639745
  H 2.210408 1.029801 2.343592
  C 3.226297 -0.353162 -0.557810
  C 4.608308 -0.648045 -1.045708
  C 5.174911 -0.980359 -2.218376
  C 4.482792 -1.294546 -3.486414
  H 3.402259 -1.224688 -3.422184
  H 6.258964 -1.038234 -2.255100
  H 3.501710 1.728919 1.326596
  H 3.783225 0.192858 2.147816
  H 3.444287 -0.758171 -1.571443
  H 5.298456 -0.518735 -0.205117
  H 4.749707 -2.298177 -3.809856
  H 4.837660 -0.622181 -4.266236
 16
 68.692306
  H 1.436385 -0.176408 0.498725
  C 2.503571 0.035982 0.473281
  C 3.028420 0.841562 1.619966
  H 2.237781 1.073627 2.322136
  C 3.202592 -0.389139 -0.538703
  C 4.586765 -0.700849 -1.039515
  C 5.167956 -0.996437 -2.215290
  C 4.489567 -1.257684 -3.505563
  H 3.407888 -1.174667 -3.455673
  H 6.251382 -1.065096 -2.233583
  H 3.462411 1.755101 1.263656
  H 3.815364 0.275564 2.133675
  H 3.471071 -0.813798 -1.536019
  H 5.263612 -0.606132 -0.175823
  H 4.750704 -2.250162 -3.856102
  H 4.864315 -0.565645 -4.259079
 16
 71.890435
  H 1.424727 -0.228713 0.570234
  C 2.495756 0.009907 0.499555
  C 3.036853 0.882628 1.590151
  H 2.259224 1.126010 2.309917
  C 3.174441 -0.433670 -0.514378
  C 4.562228 -0.762737 -1.024530
  C 5.163205 -1.015878 -2.207972
  C 4.505359 -1.211414 -3.517111
  H 3.411226 -1.110571 -3.480852
  H 6.232358 -1.096244 -2.209261
  H 3.440075 1.805481 1.171067
  H 3.850570 0.364553 2.099413
  H 3.486598 -0.882385 -1.508953
  H 5.219059 -0.710164 -0.158035
  H 4.758709 -2.193447 -3.907555
  H 4.907634 -0.491238 -4.236307
 16
 74.183207
  H 1.445933 -0.270261 0.645873
  C 2.487960 -0.018816 0.530853
  C 3.041896 0.933037 1.552285
  H 2.284163 1.194839 2.283649
  C 3.146094 -0.484713 -0.487941
  C 4.534114 -0.831925 -1.013121
  C 5.154729 -1.037077 -2.199790
  C 4.514159 -1.151947 -3.526957
  H 3.439149 -1.027134 -3.502186
  H 6.230386 -1.142310 -2.183470
  H 3.400205 1.835504 1.068623
  H 3.882115 0.474472 2.056674
  H 3.491140 -0.962656 -1.489341
  H 5.181036 -0.830524 -0.126374
  H 4.751450 -2.121210 -3.963519
  H 4.944813 -0.408903 -4.204625
 16
 75.907025
  H 1.451844 -0.299871 0.696646
  C 2.494047 -0.031599 0.554427
  C 3.041984 0.983605 1.515542
  H 2.290228 1.264584 2.245197
  C 3.147624 -0.517840 -0.456793
  C 4.523432 -0.892802 -1.002199
  C 5.154990 -1.058405 -2.196646
  C 4.524114 -1.096531 -3.530788
  H 3.444110 -0.943118 -3.509744
  H 6.224529 -1.187787 -2.171964
  H 3.371602 1.868320 0.979301
  H 3.906273 0.571748 2.031005
  H 3.508973 -1.030834 -1.469900
  H 5.150927 -0.958644 -0.113730
  H 4.740838 -2.047024 -4.007687
  H 4.980596 -0.333542 -4.175059
 16
 75.589290
  H 1.493081 -0.329437 0.707292
  C 2.527788 -0.029247 0.562185
  C 3.022505 1.054840 1.476799
  H 2.252273 1.332803 2.187779
  C 3.212041 -0.538033 -0.412216
  C 4.531275 -0.974186 -0.988962
  C 5.153884 -1.095309 -2.201634
  C 4.517872 -1.021767 -3.525645
  H 3.446753 -0.826801 -3.489403
  H 6.219386 -1.268720 -2.190278
  H 3.316106 1.926763 0.905355
  H 3.900222 0.705451 2.017669
  H 3.544821 -1.116151 -1.443296
  H 5.152191 -1.145052 -0.110266
  H 4.697198 -1.956815 -4.063520
  H 4.996987 -0.248233 -4.123046
 16
 73.506122
  H 1.525162 -0.337005 0.705711
  C 2.558051 -0.020870 0.569165
  C 3.001298 1.126309 1.430943
  H 2.208661 1.414587 2.112696
  C 3.283288 -0.558905 -0.357309
  C 4.539661 -1.073676 -0.971570
  C 5.154927 -1.128953 -2.209302
  C 4.505990 -0.943162 -3.515653
  H 3.444112 -0.712228 -3.453176
  H 6.212082 -1.340013 -2.220367
  H 3.274678 1.974831 0.814521
  H 3.879946 0.841504 2.004404
  H 3.568977 -1.221081 -1.421537
  H 5.155845 -1.341993 -0.113332
  H 4.647184 -1.842027 -4.121670
  H 5.003807 -0.146237 -4.063892
