 23
 0.000000
  C 1.002894 0.134978 0.374227
  C 2.475034 0.147150 0.412795
  C 3.225666 0.623006 1.595294
  C 2.422126 1.102025 2.801065
  C 3.356243 1.551654 3.920695
  C 3.139978 -0.310621 -0.721644
  C 4.525129 -0.379112 -0.891988
  C 5.096102 -0.847339 -2.055608
  H 4.506989 -1.188791 -2.898097
  O 6.371989 -0.935866 -2.284679
  H 0.546234 0.508237 1.282552
  H 0.640280 -0.878998 0.195697
  H 0.649587 0.727624 -0.471112
  H 3.884532 1.439639 1.277925
  H 3.890497 -0.183048 1.926756
  H 1.787339 0.297068 3.175290
  H 1.782462 1.940296 2.519817
  H 3.994241 0.734123 4.248733
  H 2.781486 1.892177 4.778373
  H 3.989433 2.373622 3.594389
  H 2.526114 -0.643116 -1.547816
  H 5.176858 -0.056279 -0.092179
  H 6.939584 -0.634236 -1.547353
 23
 5.076312
  C 1.004250 0.197112 0.361785
  C 2.447270 0.155883 0.412650
  C 3.212445 0.624909 1.589779
  C 2.415743 1.088480 2.808430
  C 3.357437 1.543798 3.920222
  C 3.131112 -0.309512 -0.718946
  C 4.515125 -0.380340 -0.873454
  C 5.074068 -0.851308 -2.032223
  H 4.448543 -1.183701 -2.854458
  O 6.358454 -0.956339 -2.286119
  H 0.502229 0.534148 1.253374
  H 0.908931 -0.861884 0.190856
  H 0.603602 0.716332 -0.507360
  H 3.854804 1.452703 1.262553
  H 3.897870 -0.169246 1.910136
  H 1.797278 0.272780 3.187296
  H 1.763512 1.921909 2.542125
  H 4.010062 0.732469 4.235576
  H 2.789136 1.872196 4.787255
  H 3.976179 2.375759 3.590853
  H 2.529627 -0.643768 -1.553665
  H 5.165314 -0.058335 -0.073922
  H 6.948035 -0.658118 -1.555288
 23
 13.292389
  C 1.007506 0.252032 0.347867
  C 2.428810 0.184248 0.413579
  C 3.211893 0.631576 1.590253
  C 2.418059 1.074799 2.808491
  C 3.356976 1.525134 3.921540
  C 3.117511 -0.294959 -0.722446
  C 4.500621 -0.380857 -0.869746
  C 5.062016 -0.857553 -2.028663
  H 4.441245 -1.184187 -2.854322
  O 6.342215 -0.972915 -2.274339
  H 0.480199 0.617625 1.215618
  H 1.126845 -0.829177 0.306845
  H 0.562863 0.601534 -0.594441
  H 3.821818 1.473844 1.256159
  H 3.912274 -0.147746 1.895358
  H 1.807388 0.248683 3.179188
  H 1.758725 1.905888 2.550398
  H 4.017370 0.715347 4.226809
  H 2.787819 1.840076 4.793435
  H 3.968847 2.365772 3.598848
  H 2.517854 -0.614574 -1.560333
  H 5.153048 -0.062616 -0.065773
  H 6.924268 -0.677120 -1.537103
 23
 21.392586
  C 1.005182 0.298508 0.359615
  C 2.424829 0.189048 0.396540
  C 3.203988 0.625373 1.571627
  C 2.406108 1.067083 2.797077
  C 3.347047 1.507075 3.909392
  C 3.105773 -0.293651 -0.732618
  C 4.492647 -0.382359 -0.877478
  C 5.060356 -0.859759 -2.023783
  H 4.451312 -1.187803 -2.843512
  O 6.354225 -0.974843 -2.263073
  H 0.505087 0.683725 1.217818
  H 1.289113 -0.765491 0.432277
  H 0.520274 0.537772 -0.585106
  H 3.809888 1.471214 1.230391
  H 3.912225 -0.164036 1.882945
  H 1.791421 0.239491 3.165340
  H 1.751762 1.903220 2.545754
  H 4.002423 0.696697 4.208924
  H 2.781288 1.819425 4.781809
  H 3.959735 2.343225 3.591144
  H 2.521577 -0.609837 -1.565746
  H 5.142045 -0.058678 -0.068323
  H 6.915716 -0.678283 -1.535386
 23
 26.209866
  C 0.985983 0.326785 0.344476
  C 2.410585 0.188488 0.392578
  C 3.200277 0.634597 1.584946
  C 2.404472 1.078520 2.807495
  C 3.346603 1.494394 3.925269
  C 3.111473 -0.295781 -0.764006
  C 4.495309 -0.387733 -0.899162
  C 5.076490 -0.863234 -2.052441
  H 4.478070 -1.187204 -2.887018
  O 6.361308 -0.981871 -2.274130
  H 0.464221 0.762943 1.175002
  H 1.405515 -0.727445 0.564105
  H 0.481880 0.392948 -0.598998
  H 3.805930 1.478500 1.246282
  H 3.898238 -0.151967 1.893183
  H 1.777935 0.264635 3.168221
  H 1.769291 1.925161 2.561317
  H 3.986401 0.670499 4.221901
  H 2.782979 1.811058 4.797119
  H 3.975144 2.321437 3.614686
  H 2.520191 -0.595651 -1.605605
  H 5.135515 -0.075918 -0.088262
  H 6.916821 -0.686695 -1.525486
 23
 30.068928
  C 0.988407 0.350239 0.332584
  C 2.408270 0.180459 0.386871
  C 3.204159 0.629016 1.579652
  C 2.400949 1.083705 2.805349
  C 3.343680 1.481057 3.937972
  C 3.108250 -0.304597 -0.770901
  C 4.489283 -0.389873 -0.904906
  C 5.074603 -0.860338 -2.056764
  H 4.476399 -1.189354 -2.899635
  O 6.363403 -0.968294 -2.275802
  H 0.465959 0.835310 1.132684
  H 1.508168 -0.674497 0.665767
  H 0.465212 0.280969 -0.608219
  H 3.823184 1.468336 1.244924
  H 3.880650 -0.160001 1.884810
  H 1.758470 0.282351 3.158273
  H 1.782277 1.944096 2.556862
  H 3.969458 0.640516 4.239016
  H 2.775837 1.806350 4.809511
  H 3.993254 2.302106 3.633956
  H 2.510902 -0.613687 -1.613772
  H 5.129064 -0.072298 -0.091651
  H 6.911048 -0.669309 -1.524918
 23
 33.596363
  C 0.982370 0.368490 0.325337
  C 2.399160 0.164124 0.393732
  C 3.203121 0.624563 1.581869
  C 2.403365 1.086432 2.794934
  C 3.348151 1.476106 3.937254
  C 3.104562 -0.312839 -0.771928
  C 4.485987 -0.397233 -0.902069
  C 5.075323 -0.851654 -2.057009
  H 4.480460 -1.170634 -2.905957
  O 6.367294 -0.954011 -2.273718
  H 0.454310 0.864953 1.122306
  H 1.576080 -0.651363 0.713630
  H 0.455323 0.227797 -0.600619
  H 3.832369 1.461680 1.244122
  H 3.875870 -0.176455 1.894108
  H 1.745061 0.290087 3.147245
  H 1.795244 1.954373 2.541132
  H 3.959872 0.632093 4.242746
  H 2.781689 1.809252 4.802158
  H 4.007611 2.285059 3.637283
  H 2.509140 -0.614606 -1.616208
  H 5.123830 -0.089475 -0.083452
  H 6.910389 -0.662267 -1.517069
 23
 36.798119
  C 0.987262 0.390703 0.321416
  C 2.401309 0.151354 0.406895
  C 3.211269 0.621904 1.587842
  C 2.401489 1.091300 2.800897
  C 3.337094 1.476365 3.943577
  C 3.109081 -0.322370 -0.772068
  C 4.488581 -0.407182 -0.905487
  C 5.076217 -0.853778 -2.065993
  H 4.481660 -1.165575 -2.914968
  O 6.366282 -0.949151 -2.286922
  H 0.455089 0.872590 1.119534
  H 1.639325 -0.648025 0.735618
  H 0.460352 0.216099 -0.599881
  H 3.837765 1.452003 1.249044
  H 3.883761 -0.180353 1.906175
  H 1.736779 0.298130 3.150205
  H 1.800238 1.962020 2.540540
  H 3.942356 0.628619 4.254522
  H 2.767101 1.814392 4.803942
  H 4.003164 2.281337 3.645454
  H 2.506905 -0.620776 -1.617566
  H 5.127060 -0.105223 -0.089969
  H 6.908565 -0.661055 -1.531170
 23
 39.631808
  C 0.984535 0.403047 0.306969
  C 2.396958 0.138899 0.410626
  C 3.214532 0.618217 1.594679
  C 2.411207 1.085418 2.799463
  C 3.347694 1.471560 3.941178
  C 3.102879 -0.328058 -0.768809
  C 4.477945 -0.408276 -0.898103
  C 5.068874 -0.849869 -2.057251
  H 4.479888 -1.159887 -2.901192
  O 6.362379 -0.943911 -2.276173
  H 0.446579 0.873878 1.105359
  H 1.689275 -0.651332 0.732149
  H 0.463608 0.210547 -0.613443
  H 3.837179 1.449127 1.254251
  H 3.881791 -0.174528 1.911312
  H 1.750165 0.295336 3.148268
  H 1.803919 1.963529 2.535791
  H 3.950555 0.628169 4.251050
  H 2.776692 1.811531 4.804511
  H 4.012814 2.274763 3.642236
  H 2.498119 -0.626659 -1.619711
  H 5.121597 -0.104019 -0.067976
  H 6.904735 -0.656682 -1.517727
 23
 42.024190
  C 0.989715 0.423047 0.294051
  C 2.399078 0.128612 0.419656
  C 3.218124 0.615405 1.595216
  C 2.408477 1.089126 2.809024
  C 3.340612 1.476987 3.948191
  C 3.103610 -0.333702 -0.761591
  C 4.484918 -0.416203 -0.895306
  C 5.073808 -0.853531 -2.055663
  H 4.466433 -1.167130 -2.924538
  O 6.363671 -0.936293 -2.277811
  H 0.440637 0.891076 1.093383
  H 1.740103 -0.664867 0.740270
  H 0.469094 0.210097 -0.629296
  H 3.837957 1.445715 1.249278
  H 3.899590 -0.189713 1.919141
  H 1.742928 0.296757 3.161321
  H 1.813602 1.950624 2.548867
  H 3.951205 0.620353 4.265678
  H 2.769779 1.818293 4.805724
  H 4.010822 2.285528 3.645250
  H 2.505548 -0.623475 -1.592070
  H 5.110679 -0.121740 -0.092074
  H 6.908910 -0.646392 -1.516792
 23
 42.557138
  C 0.989958 0.450507 0.285715
  C 2.389782 0.108299 0.433238
  C 3.216804 0.613637 1.600561
  C 2.410571 1.087855 2.813496
  C 3.346587 1.477514 3.953438
  C 3.109223 -0.342622 -0.770436
  C 4.485286 -0.425710 -0.897434
  C 5.077687 -0.852493 -2.062497
  H 4.483744 -1.151938 -2.918107
  O 6.368916 -0.933898 -2.283775
  H 0.434197 0.900976 1.092323
  H 1.780346 -0.716819 0.758366
  H 0.467414 0.222958 -0.628979
  H 3.828178 1.446511 1.245987
  H 3.896583 -0.177255 1.923670
  H 1.744528 0.296003 3.166784
  H 1.811109 1.954938 2.550814
  H 3.951941 0.627983 4.269146
  H 2.777147 1.821376 4.812402
  H 4.015788 2.282252 3.649256
  H 2.502296 -0.627596 -1.614666
  H 5.117742 -0.137525 -0.077889
  H 6.912572 -0.654705 -1.522183
 23
 43.836240
  C 0.993994 0.465713 0.273774
  C 2.391808 0.097348 0.438297
  C 3.219975 0.614403 1.605012
  C 2.416163 1.081128 2.815419
  C 3.352962 1.475303 3.957594
  C 3.108199 -0.344356 -0.766514
  C 4.482988 -0.424163 -0.893196
  C 5.076655 -0.850062 -2.060823
  H 4.477773 -1.156538 -2.917090
  O 6.361477 -0.937806 -2.279223
  H 0.438112 0.904962 1.071397
  H 1.829004 -0.735656 0.762427
  H 0.480104 0.230217 -0.637308
  H 3.821239 1.447898 1.250217
  H 3.902585 -0.166692 1.927085
  H 1.756809 0.287036 3.166003
  H 1.806081 1.952891 2.551693
  H 3.959206 0.634911 4.269534
  H 2.780793 1.816690 4.821454
  H 4.012199 2.276327 3.656484
  H 2.502677 -0.627198 -1.607184
  H 5.114463 -0.139278 -0.070778
  H 6.907618 -0.661968 -1.518686
 23
 43.245392
  C 0.998302 0.497442 0.262897
  C 2.380321 0.077840 0.450986
  C 3.217211 0.617075 1.608573
  C 2.415737 1.077928 2.824393
  C 3.355648 1.478787 3.962140
  C 3.114232 -0.355350 -0.776201
  C 4.482795 -0.436549 -0.894393
  C 5.079771 -0.855087 -2.064277
  H 4.487308 -1.152775 -2.917128
  O 6.366359 -0.937213 -2.281590
  H 0.437067 0.935194 1.068701
  H 1.876934 -0.799544 0.783223
  H 0.481534 0.261998 -0.650333
  H 3.803489 1.458914 1.243682
  H 3.911960 -0.155984 1.930429
  H 1.761170 0.275155 3.179193
  H 1.805663 1.932064 2.568997
  H 3.970724 0.640146 4.271752
  H 2.787145 1.814787 4.825616
  H 4.010069 2.287875 3.656514
  H 2.501720 -0.632826 -1.625947
  H 5.119334 -0.154245 -0.059189
  H 6.914712 -0.666099 -1.518535
 23
 42.679005
  C 1.013747 0.522707 0.255603
  C 2.381754 0.061239 0.460937
  C 3.219292 0.621071 1.608650
  C 2.414269 1.068652 2.835003
  C 3.352127 1.477053 3.967441
  C 3.118216 -0.356890 -0.770615
  C 4.485539 -0.438806 -0.890786
  C 5.081010 -0.856404 -2.066672
  H 4.483135 -1.157405 -2.916192
  O 6.360465 -0.948898 -2.283403
  H 0.454385 0.956327 1.058613
  H 1.942019 -0.844309 0.796426
  H 0.500147 0.295357 -0.660131
  H 3.785745 1.472119 1.238217
  H 3.930058 -0.140557 1.928952
  H 1.776132 0.260036 3.186374
  H 1.785657 1.923992 2.583746
  H 3.980951 0.643100 4.273216
  H 2.785449 1.801135 4.830136
  H 3.995053 2.297411 3.660880
  H 2.505774 -0.628170 -1.620517
  H 5.119713 -0.166403 -0.060267
  H 6.913079 -0.684691 -1.523854
