 16
 0.000000
  H 1.410301 0.198331 0.545026
  C 2.474601 0.136746 0.392471
  H 3.110737 0.460976 1.200557
  C 2.981932 -0.333952 -0.780203
  C 4.378230 -0.415691 -0.983939
  C 5.061820 -0.861110 -2.094977
  C 4.610558 -1.374394 -3.375035
  C 3.145867 -1.512050 -3.718180
  H 3.047000 -1.914494 -4.722143
  H 6.141447 -0.825776 -2.007037
  H 2.296924 -0.642577 -1.549660
  H 4.984602 -0.081672 -0.150933
  H 5.118442 -2.344660 -3.515080
  H 5.118563 -0.769798 -4.146654
  H 2.638791 -0.549727 -3.694890
  H 2.638914 -2.191897 -3.036641
 16
 0.553863
  H 1.406561 0.238053 0.512136
  C 2.463878 0.061505 0.394760
  H 3.061350 0.057506 1.292864
  C 3.000593 -0.207468 -0.823014
  C 4.396994 -0.326678 -1.012996
  C 5.074673 -0.819746 -2.109836
  C 4.608836 -1.390410 -3.362423
  C 3.139367 -1.537634 -3.684309
  H 3.028261 -2.010229 -4.657222
  H 6.153528 -0.811180 -2.022406
  H 2.334312 -0.366783 -1.656287
  H 5.006642 0.024926 -0.192106
  H 5.106687 -2.368100 -3.459127
  H 5.116705 -0.834349 -4.169099
  H 2.642035 -0.571009 -3.733188
  H 2.632402 -2.157560 -2.948434
 16
 2.192209
  H 1.420096 0.359303 0.444917
  C 2.448411 0.045226 0.383208
  H 2.951420 -0.135201 1.321456
  C 3.029911 -0.189295 -0.819225
  C 4.425398 -0.318043 -1.014559
  C 5.089098 -0.797992 -2.122917
  C 4.606307 -1.387893 -3.364651
  C 3.130700 -1.532166 -3.659662
  H 3.003258 -2.018541 -4.621900
  H 6.170843 -0.787793 -2.052312
  H 2.376297 -0.365000 -1.664689
  H 5.045769 0.050546 -0.203119
  H 5.090720 -2.379478 -3.429966
  H 5.104759 -0.856070 -4.182321
  H 2.638610 -0.560322 -3.723291
  H 2.632868 -2.140233 -2.905793
 16
 5.235885
  H 1.452938 0.477027 0.384183
  C 2.433147 0.028120 0.365833
  H 2.801105 -0.325214 1.318212
  C 3.072654 -0.157394 -0.817510
  C 4.457970 -0.314173 -1.014924
  C 5.105439 -0.784440 -2.134147
  C 4.605953 -1.393887 -3.362457
  C 3.122123 -1.523061 -3.626811
  H 2.972421 -2.000356 -4.590238
  H 6.184890 -0.751359 -2.089155
  H 2.410827 -0.365072 -1.653208
  H 5.084055 0.065531 -0.217409
  H 5.064915 -2.389563 -3.404342
  H 5.095444 -0.876405 -4.199605
  H 2.642220 -0.551353 -3.679303
  H 2.634186 -2.141349 -2.868594
 16
 9.396097
  H 1.463332 0.433944 0.374365
  C 2.396154 -0.098783 0.298436
  H 2.679700 -0.683631 1.161208
  C 3.131978 -0.024992 -0.836735
  C 4.512087 -0.211279 -1.043599
  C 5.132184 -0.781287 -2.125979
  C 4.590833 -1.434958 -3.321387
  C 3.094704 -1.494888 -3.562111
  H 2.906012 -2.013099 -4.491721
  H 6.220236 -0.795256 -2.085434
  H 2.480999 -0.128567 -1.704066
  H 5.155855 0.217971 -0.281519
  H 5.000507 -2.451564 -3.322627
  H 5.089950 -0.974288 -4.182647
  H 2.665106 -0.499389 -3.660003
  H 2.587397 -2.048029 -2.768529
 16
 17.291308
  H 1.489811 0.579346 0.271755
  C 2.366944 -0.054187 0.282920
  H 2.476611 -0.667477 1.170391
  C 3.193281 -0.066755 -0.801223
  C 4.553071 -0.238646 -1.046811
  C 5.164186 -0.796281 -2.140335
  C 4.600249 -1.412982 -3.345672
  C 3.094409 -1.474161 -3.534627
  H 2.875401 -1.954214 -4.490028
  H 6.242991 -0.857595 -2.095023
  H 2.438782 -0.356953 -1.549612
  H 5.197724 0.196655 -0.293024
  H 5.019988 -2.424897 -3.407203
  H 5.052308 -0.890824 -4.200851
  H 2.660104 -0.477311 -3.570497
  H 2.625542 -2.072459 -2.755075
 16
 27.438831
  H 1.496539 0.608893 0.211211
  C 2.304432 -0.109047 0.206174
  H 2.321057 -0.788180 1.051175
  C 3.264915 -0.071982 -0.762329
  C 4.596587 -0.231571 -1.054636
  C 5.195111 -0.779058 -2.161169
  C 4.599912 -1.421838 -3.341869
  C 3.086616 -1.437083 -3.486209
  H 2.818589 -2.000437 -4.377310
  H 6.280454 -0.764960 -2.169991
  H 2.410896 -0.384694 -1.422093
  H 5.251452 0.192809 -0.299342
  H 4.975783 -2.451104 -3.366479
  H 5.047722 -0.945401 -4.225769
  H 2.697209 -0.430158 -3.615957
  H 2.616966 -1.932433 -2.637993
 16
 33.952958
  H 1.535283 0.711025 0.099081
  C 2.256514 -0.100543 0.071904
  H 2.095660 -0.886824 0.808503
  C 3.362569 -0.071777 -0.708970
  C 4.656651 -0.247823 -1.046381
  C 5.240665 -0.768397 -2.179664
  C 4.597362 -1.407425 -3.346520
  C 3.077045 -1.466278 -3.378328
  H 2.756218 -1.961162 -4.293759
  H 6.319804 -0.751844 -2.219517
  H 2.331371 -0.311744 -1.304901
  H 5.325162 0.167369 -0.296617
  H 5.003324 -2.424303 -3.429588
  H 4.961705 -0.890657 -4.243226
  H 2.650921 -0.465244 -3.387704
  H 2.694845 -2.050040 -2.545134
 16
 29.589894
  H 1.590548 0.823125 0.030179
  C 2.226959 -0.059530 -0.016698
  H 2.035587 -0.816194 0.739923
  C 3.417506 -0.071847 -0.669396
  C 4.672096 -0.277638 -1.049052
  C 5.262239 -0.792607 -2.186329
  C 4.603862 -1.380390 -3.370957
  C 3.087267 -1.495967 -3.339239
  H 2.741997 -1.964819 -4.261194
  H 6.339017 -0.816435 -2.208167
  H 2.095161 -0.372744 -1.144770
  H 5.346298 0.117431 -0.287791
  H 5.046230 -2.372114 -3.538831
  H 4.906433 -0.788235 -4.246000
  H 2.627677 -0.511968 -3.285738
  H 2.765486 -2.128256 -2.511915
 16
 28.084930
  H 1.630353 0.824467 0.086061
  C 2.223573 -0.082797 0.006351
  H 2.003743 -0.845008 0.749866
  C 3.409869 -0.118492 -0.650229
  C 4.660183 -0.268148 -1.057889
  C 5.255241 -0.768201 -2.199754
  C 4.603258 -1.409961 -3.360187
  C 3.084289 -1.468284 -3.355348
  H 2.739905 -1.942735 -4.270514
  H 6.333241 -0.745408 -2.238901
  H 2.037689 -0.370647 -1.127620
  H 5.333927 0.151619 -0.304342
  H 5.013421 -2.424812 -3.449529
  H 4.946186 -0.895185 -4.261221
  H 2.661105 -0.465669 -3.330408
  H 2.723578 -2.067462 -2.520555
 16
 24.022099
  H 1.678004 0.883440 0.078319
  C 2.205155 -0.063861 -0.033057
  H 1.990151 -0.802247 0.736162
  C 3.421043 -0.118513 -0.655992
  C 4.655788 -0.296336 -1.064878
  C 5.266760 -0.792412 -2.197244
  C 4.608277 -1.401171 -3.369671
  C 3.091035 -1.482765 -3.329628
  H 2.729982 -1.955896 -4.239496
  H 6.343954 -0.767912 -2.230813
  H 1.869363 -0.385966 -1.069774
  H 5.321297 0.117275 -0.298770
  H 5.032458 -2.403652 -3.507521
  H 4.923351 -0.842221 -4.258303
  H 2.655902 -0.487308 -3.285535
  H 2.761417 -2.089877 -2.490004
 16
 19.856008
  H 1.775799 0.930172 0.117140
  C 2.166606 -0.070455 -0.076168
  H 1.948435 -0.793931 0.708748
  C 3.407670 -0.157721 -0.667789
  C 4.637473 -0.332942 -1.070103
  C 5.286697 -0.820373 -2.191214
  C 4.628141 -1.400366 -3.379912
  C 3.111923 -1.473239 -3.321100
  H 2.731528 -1.937460 -4.228139
  H 6.363808 -0.791560 -2.207270
  H 1.639731 -0.358190 -1.005455
  H 5.281432 0.082294 -0.281024
  H 5.047041 -2.400063 -3.544708
  H 4.938971 -0.818317 -4.257114
  H 2.686153 -0.474077 -3.258740
  H 2.792488 -2.080668 -2.478257
 16
 17.850806
  H 1.876625 0.923562 0.150858
  C 2.114512 -0.105351 -0.141359
  H 1.926065 -0.819016 0.662601
  C 3.373311 -0.206325 -0.720743
  C 4.617321 -0.356928 -1.086609
  C 5.309370 -0.833368 -2.182061
  C 4.651629 -1.402822 -3.375152
  C 3.135645 -1.435948 -3.306528
  H 2.729703 -1.890348 -4.206477
  H 6.384717 -0.806522 -2.172157
  H 1.413544 -0.330543 -0.957388
  H 5.226004 0.053579 -0.269016
  H 5.047362 -2.413309 -3.534828
  H 4.976671 -0.827138 -4.251185
  H 2.739286 -0.426221 -3.234394
  H 2.808677 -2.029007 -2.455638
 16
 17.524613
  H 1.906355 0.896279 0.193675
  C 2.119331 -0.124594 -0.144198
  H 1.962397 -0.860592 0.647688
  C 3.361923 -0.210410 -0.757230
  C 4.612764 -0.319872 -1.115311
  C 5.303566 -0.792260 -2.213785
  C 4.634931 -1.408685 -3.377807
  C 3.122582 -1.465461 -3.268744
  H 2.698780 -1.946254 -4.147085
  H 6.378050 -0.728268 -2.227407
  H 1.366791 -0.296688 -0.924568
  H 5.214823 0.129391 -0.314240
  H 5.044615 -2.416870 -3.515581
  H 4.929417 -0.853152 -4.276685
  H 2.711458 -0.460258 -3.207996
  H 2.829564 -2.045029 -2.396828
 16
 17.344684
  H 1.920567 0.925346 0.136943
  C 2.107630 -0.110057 -0.166396
  H 1.955518 -0.809286 0.662305
  C 3.345475 -0.253000 -0.778231
  C 4.606358 -0.355635 -1.106505
  C 5.313783 -0.829578 -2.193366
  C 4.645750 -1.407088 -3.377387
  C 3.131985 -1.435109 -3.275117
  H 2.697875 -1.857411 -4.177541
  H 6.388952 -0.788879 -2.186294
  H 1.333148 -0.323479 -0.913033
  H 5.190790 0.072519 -0.280301
  H 5.036695 -2.419415 -3.534968
  H 4.954706 -0.835390 -4.260291
  H 2.745916 -0.423906 -3.161312
  H 2.822197 -2.052354 -2.434607
