 26
 0.000000
  C 1.015055 0.111898 0.330358
  C 2.489352 0.126253 0.367562
  C 3.243284 0.602362 1.551537
  C 2.438182 1.086768 2.754371
  C 3.372477 1.536596 3.873875
  C 3.153435 -0.328972 -0.764272
  C 4.532086 -0.392479 -0.923555
  C 5.183523 -0.850292 -2.067842
  C 4.517398 -1.341175 -3.293027
  H 3.437959 -1.314119 -3.224776
  O 6.493783 -0.873028 -2.127450
  H 0.560825 0.478814 1.241938
  H 0.659556 -0.902036 0.140271
  H 0.660329 0.712223 -0.508912
  H 3.904692 1.415888 1.233000
  H 3.903979 -0.205562 1.885420
  H 1.801194 0.284901 3.131664
  H 1.802287 1.927094 2.470959
  H 4.007597 0.717524 4.203886
  H 2.798796 1.881572 4.730534
  H 4.008606 2.355306 3.544934
  H 2.534031 -0.658201 -1.583828
  H 5.165316 -0.066219 -0.110217
  H 4.851443 -2.358955 -3.498422
  H 4.851058 -0.746474 -4.144343
  H 6.936883 -0.550185 -1.322004
 26
 2.933079
  C 0.995710 0.158600 0.325443
  C 2.469691 0.224830 0.332912
  C 3.230134 0.676629 1.520460
  C 2.435731 1.076717 2.758864
  C 3.377909 1.405050 3.911486
  C 3.127674 -0.207269 -0.812149
  C 4.510986 -0.255642 -0.983190
  C 5.173968 -0.768132 -2.094545
  C 4.538449 -1.497105 -3.211580
  H 3.462343 -1.558620 -3.115394
  O 6.480210 -0.656188 -2.199950
  H 0.545479 0.513500 1.247751
  H 0.671071 -0.868096 0.142952
  H 0.605359 0.742383 -0.506855
  H 3.858589 1.526174 1.222007
  H 3.926684 -0.117116 1.804919
  H 1.780506 0.264485 3.066161
  H 1.824314 1.955921 2.546581
  H 4.036652 0.565474 4.126374
  H 2.809900 1.626250 4.815831
  H 3.992959 2.274965 3.677471
  H 2.505402 -0.502338 -1.644812
  H 5.152300 0.185819 -0.234005
  H 4.962180 -2.499178 -3.251618
  H 4.798633 -1.024211 -4.159751
  H 7.016458 -0.592241 -1.391250
 26
 11.193991
  C 0.957104 0.236663 0.312705
  C 2.430389 0.247408 0.321997
  C 3.214252 0.643277 1.515206
  C 2.444975 0.961390 2.794776
  C 3.401858 1.387322 3.906488
  C 3.077872 -0.105309 -0.858248
  C 4.457088 -0.119043 -1.054435
  C 5.154537 -0.734615 -2.086636
  C 4.580066 -1.590791 -3.141470
  H 3.516870 -1.733765 -3.002454
  O 6.454904 -0.545080 -2.150248
  H 0.522967 0.530076 1.258321
  H 0.590338 -0.758822 0.044548
  H 0.594360 0.901138 -0.469807
  H 3.813616 1.521933 1.246263
  H 3.936804 -0.148331 1.736923
  H 1.896201 0.077522 3.127076
  H 1.726143 1.759977 2.621044
  H 4.125341 0.607996 4.117396
  H 2.849469 1.596615 4.824392
  H 3.941680 2.292497 3.629561
  H 2.457458 -0.411658 -1.691411
  H 5.158526 0.362519 -0.393523
  H 5.095864 -2.549723 -3.147949
  H 4.758541 -1.146010 -4.121620
  H 7.136252 -0.639104 -1.461847
 26
 26.694252
  C 0.886463 0.261396 0.321572
  C 2.355988 0.388863 0.247996
  C 3.191176 0.708979 1.431385
  C 2.483336 0.937351 2.760006
  C 3.495083 1.165147 3.878364
  C 2.964165 0.114047 -0.963412
  C 4.343165 0.084742 -1.178531
  C 5.099250 -0.684647 -2.052387
  C 4.669794 -1.808488 -2.899659
  H 3.596722 -1.956016 -2.827858
  O 6.360971 -0.345407 -2.096587
  H 0.491021 0.460373 1.305992
  H 0.577878 -0.734967 0.004610
  H 0.430009 0.946601 -0.390168
  H 3.813169 1.576253 1.190051
  H 3.887960 -0.119430 1.575111
  H 1.869607 0.073820 3.008744
  H 1.815837 1.807622 2.698562
  H 4.122795 0.288560 4.024926
  H 2.982987 1.387378 4.812112
  H 4.131027 2.017473 3.655473
  H 2.329223 -0.106725 -1.812070
  H 5.134639 0.675159 -0.716912
  H 5.187738 -2.721787 -2.597750
  H 4.939895 -1.613829 -3.934587
  H 7.170753 -0.174403 -1.604912
 26
 50.652810
  C 0.812377 0.578019 0.355927
  C 2.270023 0.374865 0.304919
  C 3.140475 0.477212 1.509889
  C 2.477448 0.862380 2.820889
  C 3.548900 1.012052 3.899991
  C 2.846566 0.084302 -0.923499
  C 4.210946 -0.055923 -1.159232
  C 5.016452 -0.682550 -2.098082
  C 4.847066 -1.731817 -3.135189
  H 3.815106 -2.056189 -3.133088
  O 6.235021 -0.276912 -1.935740
  H 0.456434 0.803441 1.351821
  H 0.298801 -0.330230 0.026007
  H 0.513604 1.382346 -0.318733
  H 3.848596 1.286296 1.275323
  H 3.732468 -0.441360 1.624706
  H 1.753728 0.106865 3.126426
  H 2.000750 1.834167 2.709755
  H 4.049988 0.056238 4.081347
  H 3.100893 1.320650 4.838961
  H 4.305846 1.740641 3.609625
  H 2.193627 0.000859 -1.779228
  H 5.160446 0.341214 -0.652412
  H 5.509062 -2.578714 -2.953138
  H 5.118576 -1.337884 -4.116785
  H 7.140889 -0.164014 -1.543481
 26
 91.971288
  C 0.725730 0.428657 0.439332
  C 2.196733 0.335343 0.271450
  C 3.135881 0.579624 1.396543
  C 2.526706 0.914230 2.757181
  C 3.630386 1.148964 3.791452
  C 2.695819 0.017133 -0.969781
  C 4.034142 -0.145430 -1.271996
  C 4.901900 -0.770042 -2.044426
  C 4.983411 -1.885056 -2.991131
  H 4.000075 -2.326663 -3.104781
  O 6.201932 -0.106177 -1.773533
  H 0.432171 0.684347 1.452900
  H 0.246992 -0.516695 0.168246
  H 0.325747 1.174930 -0.243293
  H 3.806425 1.391807 1.113564
  H 3.764202 -0.312158 1.512852
  H 1.892245 0.093609 3.098522
  H 1.919213 1.818109 2.694649
  H 4.255717 0.265835 3.908899
  H 3.196945 1.378658 4.763059
  H 4.262541 1.981837 3.495942
  H 1.987931 -0.098294 -1.788237
  H 5.330284 0.439006 -0.908667
  H 5.689921 -2.644533 -2.656262
  H 5.327887 -1.517709 -3.959084
  H 7.035792 0.249409 -1.433350
 26
 84.095806
  C 0.673411 0.460841 0.469045
  C 2.137369 0.328698 0.261066
  C 3.119620 0.558415 1.362077
  C 2.561442 0.887466 2.741894
  C 3.697539 1.087574 3.740512
  C 2.591824 -0.009011 -0.986944
  C 3.913095 -0.214890 -1.332886
  C 4.799991 -0.784485 -2.042245
  C 5.038928 -1.873082 -2.979595
  H 4.093307 -2.374920 -3.180113
  O 6.203218 0.010579 -1.651877
  H 0.416488 0.737822 1.483164
  H 0.169867 -0.475737 0.226503
  H 0.269096 1.208333 -0.212485
  H 3.790521 1.368357 1.064049
  H 3.739787 -0.341205 1.448482
  H 1.921980 0.075561 3.092997
  H 1.968668 1.801745 2.705031
  H 4.311212 0.193448 3.820743
  H 3.299208 1.308959 4.728143
  H 4.332966 1.917330 3.439197
  H 1.860878 -0.115582 -1.782970
  H 5.515457 0.432167 -0.977582
  H 5.756045 -2.590736 -2.588908
  H 5.437375 -1.471850 -3.910084
  H 7.011257 0.420851 -1.295957
 26
 67.066849
  C 0.618369 0.526279 0.518879
  C 2.052210 0.293636 0.264682
  C 3.089585 0.472724 1.312886
  C 2.618948 0.877874 2.706875
  C 3.812532 1.034487 3.645196
  C 2.435831 -0.081318 -1.008865
  C 3.719634 -0.346933 -1.418060
  C 4.628957 -0.879050 -2.071216
  C 5.140193 -1.876950 -2.959444
  H 4.314121 -2.519771 -3.260286
  O 6.209935 0.192003 -1.505150
  H 0.413093 0.811721 1.543279
  H 0.045122 -0.370852 0.280972
  H 0.246139 1.307074 -0.145329
  H 3.801346 1.227994 0.965401
  H 3.650827 -0.466050 1.389435
  H 1.948819 0.118953 3.113991
  H 2.085266 1.828712 2.664538
  H 4.369775 0.103915 3.725867
  H 3.477072 1.310360 4.641863
  H 4.486552 1.810452 3.289229
  H 1.675100 -0.143740 -1.778817
  H 5.488635 0.509468 -0.927063
  H 5.923038 -2.473697 -2.494466
  H 5.554396 -1.394621 -3.844911
  H 6.964367 0.637298 -1.093394
 26
 50.180271
  C 0.560167 0.634048 0.578001
  C 1.948957 0.311810 0.231465
  C 3.062494 0.408357 1.202894
  C 2.731776 0.877892 2.615208
  C 3.989358 0.878017 3.489203
  C 2.206295 -0.120919 -1.062573
  C 3.414430 -0.554136 -1.552118
  C 4.367796 -1.075773 -2.119062
  C 5.286708 -1.873143 -2.844110
  H 4.752513 -2.718767 -3.279456
  O 6.147038 0.429847 -1.277624
  H 0.432119 0.914822 1.612233
  H -0.084412 -0.216292 0.353487
  H 0.199551 1.448230 -0.058998
  H 3.828685 1.065982 0.787804
  H 3.532396 -0.581293 1.262977
  H 1.991731 0.211382 3.067396
  H 2.317449 1.891553 2.594075
  H 4.421938 -0.114349 3.544247
  H 3.747824 1.194872 4.499354
  H 4.736981 1.558954 3.098955
  H 1.376940 -0.186985 -1.761364
  H 5.327016 0.649089 -0.822794
  H 6.106241 -2.215292 -2.216701
  H 5.700338 -1.280771 -3.661922
  H 6.829970 0.928992 -0.814577
 26
 46.607977
  C 0.532237 0.766982 0.257041
  C 1.915708 0.284751 0.100014
  C 2.999810 0.629491 1.052284
  C 2.635361 1.479571 2.272030
  C 3.869702 1.732526 3.145048
  C 2.192770 -0.534102 -0.996059
  C 3.404488 -1.121891 -1.281350
  C 4.400834 -1.771251 -1.605955
  C 5.462346 -2.718923 -1.966258
  H 5.006097 -3.707548 -2.194716
  O 6.240803 0.045301 -1.284611
  H 0.395314 1.405126 1.127756
  H -0.150453 -0.089603 0.325228
  H 0.219337 1.312222 -0.645520
  H 3.791493 1.146888 0.491549
  H 3.467481 -0.312121 1.395109
  H 1.880456 0.964243 2.874524
  H 2.224968 2.449169 1.953911
  H 4.298080 0.790106 3.504673
  H 3.601239 2.333518 4.016445
  H 4.635357 2.275704 2.589437
  H 1.390397 -0.760580 -1.696514
  H 5.393777 0.402141 -0.977478
  H 6.235668 -2.800360 -1.158236
  H 5.972182 -2.354188 -2.923116
  H 6.916845 0.618955 -0.909240
 26
 51.615584
  C 0.530765 0.499601 0.590226
  C 1.943155 0.265313 0.254952
  C 3.045412 0.468288 1.221026
  C 2.678847 0.932024 2.626336
  C 3.930442 1.068904 3.489063
  C 2.246385 -0.153629 -1.033752
  C 3.485537 -0.500940 -1.505075
  C 4.446036 -1.000438 -2.085393
  C 5.258420 -1.825503 -2.905495
  H 4.621146 -2.543361 -3.423171
  O 6.228681 0.240889 -1.295575
  H 0.384769 0.821627 1.614183
  H -0.046569 -0.409115 0.410444
  H 0.112126 1.252929 -0.080085
  H 3.753574 1.185036 0.790887
  H 3.602802 -0.475368 1.287556
  H 2.006087 0.214051 3.098317
  H 2.175525 1.899621 2.585483
  H 4.450239 0.117496 3.575394
  H 3.664847 1.397513 4.490513
  H 4.616805 1.799252 3.066858
  H 1.448859 -0.226159 -1.763727
  H 5.539488 0.627171 -0.749494
  H 6.029963 -2.337088 -2.336068
  H 5.733139 -1.200908 -3.664514
  H 7.045821 0.348921 -0.792893
