 26
 0.000000
  C 0.925570 0.046775 0.292877
  C 2.412540 0.063445 0.064938
  C 3.231753 -0.009180 1.332599
  H 2.598910 -0.055205 2.212855
  C 3.001745 0.129896 -1.142963
  C 2.355924 0.206114 -2.512352
  C 0.842086 0.218301 -2.708899
  C 0.516483 0.300996 -4.198180
  C 4.459604 0.134297 -1.227924
  C 5.204348 0.195108 -2.332626
  O 6.563699 0.195018 -2.339515
  H 0.699706 -0.010809 1.355164
  H 0.465704 -0.815397 -0.183158
  H 0.454784 0.950182 -0.086352
  H 3.875792 0.865246 1.430550
  H 3.869119 -0.893945 1.333658
  H 2.745119 -0.642780 -3.085097
  H 2.746412 1.112417 -2.988011
  H 0.395951 1.078367 -2.211442
  H 0.394237 -0.690510 -2.309335
  H 0.930418 1.208237 -4.633617
  H -0.560650 0.310427 -4.350493
  H 0.928772 -0.553442 -4.731063
  H 5.002453 0.082469 -0.294196
  H 4.829680 0.250895 -3.341155
  H 6.892711 0.144838 -1.432629
 26
 6.090929
  C 0.940311 0.067124 0.286463
  C 2.386791 0.067160 0.065015
  C 3.216470 0.012564 1.328346
  H 2.570030 -0.066485 2.201973
  C 2.988555 0.131626 -1.137336
  C 2.345585 0.205306 -2.500421
  C 0.837120 0.234495 -2.692350
  C 0.510103 0.312960 -4.180514
  C 4.448083 0.120457 -1.221116
  C 5.194017 0.173915 -2.330629
  O 6.558952 0.170304 -2.338779
  H 0.666539 -0.032211 1.318026
  H 0.767401 -0.847862 -0.260669
  H 0.417224 0.894362 -0.133454
  H 3.819507 0.911547 1.444523
  H 3.883142 -0.847300 1.333308
  H 2.725917 -0.648631 -3.066600
  H 2.744334 1.102583 -2.979433
  H 0.405384 1.104448 -2.197233
  H 0.375449 -0.665163 -2.286029
  H 0.938163 1.211390 -4.621064
  H -0.566232 0.336830 -4.332601
  H 0.911247 -0.550384 -4.708075
  H 4.988122 0.070375 -0.293792
  H 4.815198 0.229220 -3.342776
  H 6.889535 0.122059 -1.428613
 26
 18.565039
  C 0.930576 0.067658 0.296364
  C 2.378358 0.069563 0.079757
  C 3.206116 0.021436 1.323489
  H 2.560407 -0.086656 2.193682
  C 2.992294 0.134402 -1.144878
  C 2.340959 0.203044 -2.506432
  C 0.827012 0.255112 -2.688030
  C 0.491762 0.318368 -4.177280
  C 4.448575 0.117678 -1.225462
  C 5.197535 0.161512 -2.323474
  O 6.573396 0.151828 -2.321843
  H 0.621367 -0.087545 1.314435
  H 1.008151 -0.831131 -0.286062
  H 0.363069 0.864997 -0.162315
  H 3.780685 0.944363 1.445540
  H 3.902810 -0.821880 1.318957
  H 2.708048 -0.667395 -3.069494
  H 2.750667 1.095162 -3.000029
  H 0.413878 1.142284 -2.203648
  H 0.347876 -0.628406 -2.264761
  H 0.933642 1.200901 -4.633704
  H -0.585424 0.360604 -4.322914
  H 0.872623 -0.559305 -4.694046
  H 4.988904 0.073292 -0.285648
  H 4.830571 0.210034 -3.331414
  H 6.900284 0.108813 -1.399683
 26
 32.517790
  C 0.911198 0.069280 0.322559
  C 2.361892 0.068167 0.083872
  C 3.210104 0.014391 1.334964
  H 2.575645 -0.113746 2.210968
  C 2.983314 0.137282 -1.142694
  C 2.334528 0.204030 -2.513075
  C 0.826071 0.275829 -2.703662
  C 0.497204 0.323061 -4.195963
  C 4.448157 0.118102 -1.218429
  C 5.196141 0.151491 -2.323194
  O 6.551690 0.146070 -2.323780
  H 0.605283 -0.088493 1.349486
  H 1.180533 -0.812830 -0.226861
  H 0.302522 0.803720 -0.179769
  H 3.761837 0.939446 1.461061
  H 3.917457 -0.808307 1.317851
  H 2.690993 -0.673148 -3.066472
  H 2.756947 1.082667 -3.012457
  H 0.425832 1.180813 -2.233599
  H 0.330043 -0.595461 -2.267548
  H 0.956203 1.192469 -4.663220
  H -0.577890 0.380799 -4.347236
  H 0.866065 -0.568564 -4.698834
  H 4.989670 0.084721 -0.281186
  H 4.826522 0.187578 -3.331253
  H 6.869187 0.117605 -1.421399
 26
 43.991026
  C 0.899217 0.085983 0.332029
  C 2.355246 0.065133 0.072951
  C 3.191181 -0.008667 1.324841
  H 2.553255 -0.152092 2.195691
  C 2.989997 0.142200 -1.153903
  C 2.344334 0.208825 -2.523613
  C 0.832929 0.292342 -2.701741
  C 0.488927 0.322777 -4.186589
  C 4.445273 0.125210 -1.220086
  C 5.199073 0.147727 -2.324738
  O 6.555152 0.146726 -2.319161
  H 0.600908 -0.026537 1.364651
  H 1.319710 -0.808794 -0.154567
  H 0.261710 0.736896 -0.232158
  H 3.737891 0.925300 1.464929
  H 3.907531 -0.830081 1.299118
  H 2.691063 -0.676578 -3.075304
  H 2.773592 1.081000 -3.033155
  H 0.450618 1.202505 -2.243705
  H 0.336890 -0.564862 -2.250439
  H 0.950780 1.179830 -4.669076
  H -0.586847 0.389108 -4.327091
  H 0.843499 -0.578146 -4.680397
  H 4.979412 0.107754 -0.287769
  H 4.831775 0.167309 -3.337866
  H 6.870523 0.133363 -1.405073
 26
 53.111725
  C 0.897162 0.108306 0.340656
  C 2.349982 0.062739 0.064662
  C 3.188662 -0.028417 1.337477
  H 2.552984 -0.181878 2.202095
  C 2.988172 0.144908 -1.154993
  C 2.347816 0.212271 -2.531876
  C 0.836023 0.297793 -2.705969
  C 0.482293 0.320771 -4.200215
  C 4.435094 0.128737 -1.217936
  C 5.188556 0.146135 -2.320618
  O 6.562362 0.147296 -2.312630
  H 0.602929 0.016836 1.378175
  H 1.424797 -0.789169 -0.112397
  H 0.243805 0.706636 -0.253152
  H 3.728938 0.905765 1.485058
  H 3.908884 -0.849543 1.309084
  H 2.694031 -0.680107 -3.084603
  H 2.780598 1.086870 -3.044897
  H 0.457154 1.214540 -2.249006
  H 0.339683 -0.560212 -2.244755
  H 0.946181 1.179611 -4.693208
  H -0.598725 0.388625 -4.336801
  H 0.834625 -0.588335 -4.693860
  H 4.972527 0.118059 -0.279005
  H 4.817210 0.157754 -3.347794
  H 6.873633 0.141446 -1.404725
 26
 58.832888
  C 0.888690 0.142406 0.351948
  C 2.345642 0.053536 0.062407
  C 3.182656 -0.053040 1.321668
  H 2.546642 -0.214303 2.191851
  C 2.994475 0.147404 -1.170141
  C 2.351748 0.218200 -2.543594
  C 0.835913 0.301192 -2.710965
  C 0.475968 0.317458 -4.190641
  C 4.438643 0.134175 -1.222326
  C 5.203044 0.144173 -2.320179
  O 6.574088 0.150424 -2.300470
  H 0.598705 0.096551 1.389833
  H 1.498745 -0.789348 -0.043973
  H 0.214853 0.662856 -0.295591
  H 3.726749 0.873543 1.477851
  H 3.894281 -0.870370 1.276575
  H 2.692783 -0.663560 -3.094957
  H 2.779120 1.085690 -3.052634
  H 0.459074 1.216695 -2.257658
  H 0.345966 -0.554074 -2.245641
  H 0.932808 1.169117 -4.685138
  H -0.600764 0.382811 -4.320671
  H 0.825382 -0.587827 -4.679284
  H 4.966651 0.134161 -0.284710
  H 4.845182 0.142733 -3.335873
  H 6.877263 0.156942 -1.388046
 26
 63.557222
  C 0.884426 0.175531 0.362541
  C 2.337588 0.043718 0.062362
  C 3.182967 -0.071343 1.325788
  H 2.553434 -0.240711 2.190236
  C 2.990929 0.153090 -1.176030
  C 2.349567 0.226319 -2.547511
  C 0.841311 0.303708 -2.712758
  C 0.479322 0.312876 -4.194990
  C 4.431690 0.140108 -1.224572
  C 5.198884 0.145131 -2.321986
  O 6.568875 0.147649 -2.298256
  H 0.598316 0.155339 1.395605
  H 1.556845 -0.791989 0.000499
  H 0.198601 0.627324 -0.318181
  H 3.726840 0.854232 1.491773
  H 3.899034 -0.892178 1.269583
  H 2.694421 -0.660892 -3.107005
  H 2.777152 1.102397 -3.057151
  H 0.463201 1.218181 -2.262958
  H 0.357012 -0.551235 -2.243543
  H 0.932718 1.163960 -4.693287
  H -0.595778 0.374072 -4.324172
  H 0.830659 -0.592004 -4.680071
  H 4.962275 0.145529 -0.280606
  H 4.842482 0.135037 -3.339525
  H 6.869675 0.159159 -1.381461
 26
 66.803763
  C 0.888723 0.229802 0.379428
  C 2.333622 0.030961 0.067435
  C 3.179546 -0.095995 1.327091
  H 2.547649 -0.268721 2.188721
  C 2.994314 0.157627 -1.179023
  C 2.351441 0.231419 -2.550418
  C 0.841397 0.302395 -2.717537
  C 0.480862 0.302284 -4.200347
  C 4.434257 0.138847 -1.225998
  C 5.203486 0.145800 -2.324313
  O 6.574870 0.158972 -2.298829
  H 0.596643 0.207098 1.409128
  H 1.595846 -0.796882 0.025624
  H 0.192406 0.621820 -0.323764
  H 3.730675 0.824070 1.502261
  H 3.886564 -0.920478 1.261392
  H 2.697083 -0.647761 -3.109731
  H 2.775891 1.107272 -3.057133
  H 0.456260 1.224431 -2.269904
  H 0.358868 -0.556384 -2.243480
  H 0.932839 1.154381 -4.703384
  H -0.596727 0.359017 -4.331288
  H 0.836981 -0.605579 -4.681242
  H 4.965322 0.146577 -0.283260
  H 4.848486 0.138877 -3.339427
  H 6.874091 0.172084 -1.381929
 26
 69.261869
  C 0.897099 0.298479 0.387659
  C 2.326859 0.016839 0.068604
  C 3.178885 -0.123898 1.320207
  H 2.549979 -0.303995 2.183067
  C 2.998284 0.165605 -1.188309
  C 2.352382 0.238613 -2.555653
  C 0.844071 0.298459 -2.716560
  C 0.478571 0.284993 -4.196092
  C 4.433744 0.138834 -1.227782
  C 5.212376 0.150942 -2.320391
  O 6.581062 0.169210 -2.281360
  H 0.590151 0.248827 1.418147
  H 1.622211 -0.814253 0.015507
  H 0.196630 0.655268 -0.328672
  H 3.735515 0.795022 1.502589
  H 3.882984 -0.952384 1.239231
  H 2.699881 -0.634110 -3.116914
  H 2.768521 1.115614 -3.061553
  H 0.454419 1.222899 -2.273345
  H 0.370156 -0.560842 -2.234494
  H 0.923694 1.136571 -4.707025
  H -0.600466 0.334300 -4.323274
  H 0.838539 -0.624722 -4.671812
  H 4.958629 0.144224 -0.282730
  H 4.864902 0.151135 -3.343091
  H 6.871378 0.178204 -1.360248
 26
 70.311871
  C 0.917514 0.375783 0.402350
  C 2.324127 0.005962 0.076010
  C 3.177951 -0.155227 1.326994
  H 2.543266 -0.344760 2.190973
  C 3.003390 0.175133 -1.184533
  C 2.359274 0.246505 -2.551164
  C 0.837390 0.294719 -2.720130
  C 0.473118 0.265257 -4.206353
  C 4.435449 0.143206 -1.223727
  C 5.213870 0.159501 -2.320268
  O 6.581699 0.179095 -2.283337
  H 0.592529 0.275405 1.414994
  H 1.649837 -0.831837 -0.003915
  H 0.214186 0.709028 -0.325802
  H 3.738141 0.755768 1.522021
  H 3.875882 -0.987304 1.233025
  H 2.715965 -0.623538 -3.112613
  H 2.768580 1.118969 -3.049861
  H 0.440353 1.215905 -2.289316
  H 0.367731 -0.563763 -2.231900
  H 0.913268 1.114524 -4.723964
  H -0.606023 0.306436 -4.336818
  H 0.839968 -0.646907 -4.673837
  H 4.963209 0.143443 -0.279305
  H 4.863848 0.164300 -3.340960
  H 6.873805 0.184293 -1.362979
 26
 70.710973
  C 0.942212 0.446683 0.405969
  C 2.317328 -0.003837 0.069425
  C 3.177697 -0.189494 1.317262
  H 2.547978 -0.387767 2.175511
  C 3.000148 0.178897 -1.189648
  C 2.351344 0.246754 -2.557456
  C 0.844035 0.289219 -2.715319
  C 0.472659 0.241057 -4.199077
  C 4.425175 0.140940 -1.221886
  C 5.214497 0.165159 -2.310823
  O 6.582331 0.197806 -2.259266
  H 0.597867 0.300298 1.408374
  H 1.673683 -0.847106 -0.036086
  H 0.246633 0.776669 -0.331930
  H 3.742136 0.712772 1.523162
  H 3.869548 -1.024640 1.206519
  H 2.707907 -0.627566 -3.123097
  H 2.759538 1.130404 -3.066088
  H 0.449042 1.210544 -2.293395
  H 0.379201 -0.562430 -2.212562
  H 0.907618 1.081546 -4.727801
  H -0.605460 0.279549 -4.324063
  H 0.837245 -0.674256 -4.656707
  H 4.944801 0.138012 -0.274439
  H 4.874629 0.181185 -3.335203
  H 6.865747 0.198811 -1.336053
 26
 69.462587
  C 0.975592 0.542674 0.425457
  C 2.305070 -0.008024 0.066309
  C 3.166812 -0.242695 1.306201
  H 2.533072 -0.455659 2.162355
  C 3.002058 0.199143 -1.194425
  C 2.358111 0.259527 -2.557519
  C 0.838887 0.267681 -2.718928
  C 0.471590 0.200905 -4.194212
  C 4.425553 0.167264 -1.220213
  C 5.220399 0.188043 -2.309592
  O 6.585319 0.193355 -2.254003
  H 0.610564 0.343354 1.409625
  H 1.683402 -0.863246 -0.085032
  H 0.288036 0.899714 -0.307293
  H 3.746582 0.643654 1.536817
  H 3.842280 -1.084581 1.168732
  H 2.734809 -0.604340 -3.123506
  H 2.749700 1.154453 -3.062613
  H 0.420989 1.187119 -2.303584
  H 0.391358 -0.591638 -2.209029
  H 0.890769 1.049755 -4.730090
  H -0.606190 0.215717 -4.319401
  H 0.855449 -0.709497 -4.643928
  H 4.942698 0.151401 -0.268415
  H 4.880624 0.193717 -3.336783
  H 6.866847 0.189012 -1.330312
 26
 67.867382
  C 1.012881 0.617298 0.422784
  C 2.296389 -0.027040 0.058772
  C 3.149922 -0.290693 1.297905
  H 2.506533 -0.513207 2.147026
  C 3.013045 0.188766 -1.201352
  C 2.364953 0.250490 -2.561549
  C 0.845207 0.261065 -2.708881
  C 0.458676 0.168406 -4.186711
  C 4.430053 0.146333 -1.221120
  C 5.231060 0.193167 -2.309432
  O 6.593979 0.236229 -2.248222
  H 0.604554 0.377608 1.389517
  H 1.704242 -0.897840 -0.131924
  H 0.345100 0.995984 -0.312492
  H 3.737356 0.588926 1.548934
  H 3.816973 -1.135655 1.147930
  H 2.734234 -0.617152 -3.126712
  H 2.755747 1.137590 -3.071649
  H 0.433644 1.188504 -2.305583
  H 0.400760 -0.585296 -2.177049
  H 0.874416 1.005001 -4.742716
  H -0.621911 0.185516 -4.300485
  H 0.833777 -0.752736 -4.625725
  H 4.943918 0.136695 -0.267588
  H 4.894767 0.231436 -3.329345
  H 6.874128 0.218455 -1.322220
