 18
 0.000000
  H 1.435579 0.057766 0.111947
  C 2.510281 0.063330 0.013332
  C 3.283754 -0.009298 1.300498
  C 2.387361 -0.078742 2.531119
  H 2.985069 -0.129874 3.437317
  C 3.084314 0.130365 -1.174637
  C 2.395998 0.205342 -2.503410
  C 0.873663 0.203189 -2.465223
  H 0.475949 0.260171 -3.475071
  H 4.165549 0.134337 -1.244982
  H 3.934760 0.866808 1.382195
  H 3.934775 -0.889042 1.283119
  H 1.749609 -0.959581 2.489390
  H 1.749587 0.801215 2.588744
  H 2.736551 -0.638433 -3.114461
  H 2.736550 1.112501 -3.015659
  H 0.501476 1.056588 -1.903449
  H 0.501480 -0.707984 -2.003022
 18
 -0.013905
  H 1.446262 0.062280 0.109411
  C 2.521004 0.059090 0.010303
  C 3.291980 -0.006622 1.299289
  C 2.376767 -0.078983 2.516124
  H 2.960835 -0.159910 3.430246
  C 3.087466 0.138179 -1.181801
  C 2.392222 0.201482 -2.508148
  C 0.871109 0.203239 -2.441784
  H 0.454720 0.245450 -3.446003
  H 4.169787 0.136176 -1.251389
  H 3.936287 0.872622 1.382115
  H 3.948073 -0.881896 1.287015
  H 1.723610 -0.945934 2.450098
  H 1.758038 0.813670 2.581940
  H 2.725648 -0.651244 -3.109419
  H 2.731869 1.103298 -3.029429
  H 0.511564 1.066476 -1.885223
  H 0.506966 -0.699645 -1.958440
 18
 -0.013679
  H 1.445943 0.044538 0.113067
  C 2.520625 0.061354 0.011594
  C 3.292917 0.002734 1.298919
  C 2.378148 -0.089501 2.515045
  H 2.962734 -0.174891 3.429324
  C 3.084242 0.133859 -1.182426
  C 2.386568 0.191201 -2.508459
  C 0.867057 0.214854 -2.438407
  H 0.448614 0.234173 -3.442582
  H 4.168521 0.152656 -1.253420
  H 3.921483 0.891024 1.384916
  H 3.963874 -0.861774 1.281831
  H 1.733564 -0.959508 2.440399
  H 1.752099 0.797516 2.590286
  H 2.706373 -0.673375 -3.100609
  H 2.738414 1.083508 -3.040913
  H 0.521385 1.097434 -1.905797
  H 0.492120 -0.669916 -1.930022
 18
 -0.035084
  H 1.441416 0.045359 0.111526
  C 2.517877 0.057421 0.010984
  C 3.292577 -0.014821 1.298617
  C 2.378162 -0.071008 2.516528
  H 2.962000 -0.138984 3.431276
  C 3.081635 0.134494 -1.182469
  C 2.384040 0.204580 -2.506460
  C 0.864302 0.201544 -2.436987
  H 0.446738 0.236848 -3.440812
  H 4.165010 0.146983 -1.253165
  H 3.950768 0.856637 1.376929
  H 3.937600 -0.901493 1.286132
  H 1.725968 -0.937456 2.462998
  H 1.760306 0.821073 2.570475
  H 2.719035 -0.644449 -3.115266
  H 2.720589 1.113303 -3.021995
  H 0.503617 1.066764 -1.884565
  H 0.503815 -0.702700 -1.947282
 18
 -0.037945
  H 1.444513 -0.001487 0.108095
  C 2.518318 0.037828 0.009145
  C 3.291061 -0.030594 1.297603
  C 2.380913 -0.055571 2.516228
  H 2.967030 -0.127728 3.430341
  C 3.080537 0.143323 -1.181542
  C 2.379869 0.210410 -2.505364
  C 0.860767 0.197458 -2.431722
  H 0.439496 0.244662 -3.432668
  H 4.162418 0.184275 -1.252074
  H 3.963534 0.829485 1.364452
  H 3.919334 -0.926766 1.296840
  H 1.709366 -0.909648 2.471934
  H 1.781454 0.853337 2.562716
  H 2.715339 -0.632779 -3.115602
  H 2.710657 1.119873 -3.020211
  H 0.496094 1.050926 -1.867410
  H 0.506272 -0.715401 -1.954727
 18
 -0.015060
  H 1.441055 -0.042965 0.106984
  C 2.516937 0.024163 0.012130
  C 3.292493 -0.035199 1.299859
  C 2.377766 -0.055418 2.517615
  H 2.961817 -0.147299 3.431280
  C 3.078059 0.159945 -1.178046
  C 2.377931 0.209167 -2.502660
  C 0.859201 0.201317 -2.434395
  H 0.440000 0.238111 -3.436720
  H 4.158375 0.226152 -1.243182
  H 3.965872 0.828292 1.362583
  H 3.921424 -0.932009 1.306436
  H 1.689607 -0.897707 2.463586
  H 1.797360 0.864432 2.571720
  H 2.717662 -0.642248 -3.095421
  H 2.707272 1.110295 -3.031155
  H 0.496014 1.063347 -1.879540
  H 0.500573 -0.703509 -1.949449
 18
 0.045814
  H 1.445421 -0.075902 0.109236
  C 2.516317 0.005382 0.014222
  C 3.289013 -0.036703 1.301582
  C 2.375103 -0.051814 2.517728
  H 2.956314 -0.159191 3.431301
  C 3.076116 0.165543 -1.173631
  C 2.378860 0.201947 -2.501475
  C 0.857528 0.211071 -2.431919
  H 0.438635 0.238774 -3.435819
  H 4.153747 0.251144 -1.239058
  H 3.957408 0.828115 1.356565
  H 3.922106 -0.928200 1.313972
  H 1.674209 -0.882303 2.459692
  H 1.808034 0.872687 2.579863
  H 2.708881 -0.664861 -3.085983
  H 2.721748 1.090353 -3.040159
  H 0.504770 1.083698 -1.888489
  H 0.489142 -0.684138 -1.934575
 18
 0.169707
  H 1.450130 -0.110632 0.112839
  C 2.519716 -0.015846 0.018073
  C 3.289673 -0.038419 1.305490
  C 2.376058 -0.050015 2.518830
  H 2.955699 -0.167395 3.430721
  C 3.073871 0.179908 -1.169482
  C 2.375281 0.195947 -2.498575
  C 0.852692 0.217691 -2.431402
  H 0.435502 0.236213 -3.437495
  H 4.149570 0.286503 -1.235250
  H 3.951923 0.830409 1.352382
  H 3.927709 -0.925452 1.325979
  H 1.665838 -0.873532 2.454263
  H 1.818632 0.878691 2.586940
  H 2.702133 -0.683566 -3.069045
  H 2.720500 1.069473 -3.049656
  H 0.506362 1.098974 -1.897266
  H 0.477574 -0.666672 -1.926699
 18
 0.396498
  H 1.445147 -0.103576 0.116722
  C 2.518028 -0.017127 0.016236
  C 3.291006 -0.038686 1.305821
  C 2.378985 -0.052757 2.528184
  H 2.961272 -0.168529 3.440089
  C 3.065303 0.198957 -1.167880
  C 2.371132 0.190839 -2.497682
  C 0.850491 0.219450 -2.431554
  H 0.435241 0.233862 -3.436912
  H 4.143513 0.287898 -1.238591
  H 3.954563 0.831560 1.352152
  H 3.929856 -0.927230 1.323944
  H 1.670811 -0.876170 2.467239
  H 1.818866 0.879388 2.597518
  H 2.695404 -0.699667 -3.047184
  H 2.720856 1.057492 -3.069169
  H 0.506096 1.105687 -1.902203
  H 0.470068 -0.662006 -1.922171
 18
 0.487756
  H 1.445614 -0.100824 0.116880
  C 2.518304 -0.025547 0.018476
  C 3.289343 -0.038654 1.309554
  C 2.375481 -0.046092 2.529921
  H 2.956033 -0.151496 3.442810
  C 3.064371 0.206158 -1.164040
  C 2.371298 0.188383 -2.493924
  C 0.849994 0.216101 -2.427049
  H 0.434524 0.246789 -3.432250
  H 4.144634 0.285340 -1.236056
  H 3.954959 0.827184 1.350521
  H 3.926578 -0.929973 1.333245
  H 1.669559 -0.871027 2.473493
  H 1.814298 0.882236 2.589762
  H 2.696048 -0.702850 -3.042368
  H 2.720503 1.055061 -3.069231
  H 0.506294 1.091582 -1.882557
  H 0.469912 -0.675238 -1.932434
 18
 0.074340
  H 1.450959 -0.183380 0.111739
  C 2.517137 -0.050867 0.016196
  C 3.291149 -0.094782 1.302771
  C 2.383499 -0.001045 2.525474
  H 2.965274 -0.076143 3.441267
  C 3.064602 0.197950 -1.161270
  C 2.366119 0.215329 -2.490200
  C 0.844644 0.208963 -2.423001
  H 0.426315 0.251543 -3.427346
  H 4.140170 0.331022 -1.221296
  H 4.018253 0.723885 1.319775
  H 3.862088 -1.025873 1.346811
  H 1.651482 -0.805962 2.519522
  H 1.851043 0.947711 2.533459
  H 2.705975 -0.655826 -3.062656
  H 2.701057 1.101777 -3.039692
  H 0.484235 1.068566 -1.864922
  H 0.483747 -0.695736 -1.941878
 18
 0.027566
  H 1.434954 -0.073370 0.118856
  C 2.510438 0.005518 0.019645
  C 3.287998 -0.052595 1.305111
  C 2.385179 -0.022811 2.532639
  H 2.972080 -0.136169 3.442200
  C 3.065362 0.162168 -1.168700
  C 2.368876 0.185682 -2.493884
  C 0.848064 0.206913 -2.424922
  H 0.434520 0.256937 -3.430548
  H 4.141142 0.261298 -1.244309
  H 3.985168 0.787151 1.347209
  H 3.888670 -0.967328 1.323542
  H 1.659436 -0.831217 2.489984
  H 1.844301 0.917696 2.592560
  H 2.694445 -0.693730 -3.066551
  H 2.716960 1.064456 -3.048176
  H 0.497791 1.077082 -1.863195
  H 0.472364 -0.690549 -1.946709
 18
 0.015186
  H 1.440003 -0.037532 0.123140
  C 2.512625 0.022094 0.020882
  C 3.288361 -0.033067 1.303973
  C 2.379825 -0.030161 2.526743
  H 2.962897 -0.143985 3.437355
  C 3.070635 0.133354 -1.173371
  C 2.368980 0.182619 -2.494748
  C 0.850128 0.206902 -2.417400
  H 0.427499 0.267016 -3.418821
  H 4.149587 0.193818 -1.246382
  H 3.970166 0.819875 1.354072
  H 3.906103 -0.934856 1.314349
  H 1.665475 -0.850077 2.473096
  H 1.826594 0.904614 2.589225
  H 2.686828 -0.686740 -3.082609
  H 2.717986 1.069328 -3.033512
  H 0.509228 1.069611 -1.848286
  H 0.474825 -0.695683 -1.942954
