 13
 0.000000
  C 1.009022 -0.070996 0.048684
  C 2.505497 -0.084763 0.021658
  C 3.217394 -0.596762 -0.983484
  C 4.659441 -0.608762 -1.007040
  C 5.371062 -1.119510 -2.009723
  H 6.445153 -1.124897 -2.020298
  H 0.649591 0.395445 0.964382
  H 0.612152 -1.084534 0.010092
  H 0.612151 0.493706 -0.793849
  H 3.008962 0.349659 0.874504
  H 2.706704 -1.029985 -1.833964
  H 5.164310 -0.174137 -0.153801
  H 4.872171 -1.553924 -2.862552
 13
 2.897670
  C 1.037276 -0.090706 0.051296
  C 2.529095 -0.084375 0.058364
  C 3.231881 -0.670059 -0.917960
  C 4.669436 -0.720784 -0.964915
  C 5.369194 -1.050638 -2.044446
  H 6.440043 -1.083743 -2.039589
  H 0.639842 0.693601 0.682377
  H 0.666609 -1.052794 0.414178
  H 0.646971 0.057739 -0.955908
  H 3.011039 0.388654 0.902944
  H 2.657258 -0.838132 -1.824839
  H 5.173378 -0.508270 -0.032074
  H 4.886663 -1.281106 -2.978473
 13
 10.611596
  C 1.042855 -0.073947 0.044416
  C 2.535812 -0.081505 0.024744
  C 3.212726 -0.821952 -0.871448
  C 4.663914 -0.824088 -0.924148
  C 5.361688 -0.953449 -2.047322
  H 6.436114 -1.006807 -2.050688
  H 0.664235 0.859391 0.440389
  H 0.677597 -0.897696 0.656224
  H 0.639570 -0.199798 -0.960866
  H 3.033583 0.441213 0.833791
  H 2.669715 -0.813247 -1.806078
  H 5.167950 -0.790665 0.029046
  H 4.876403 -0.996855 -3.011212
 13
 25.870752
  C 1.062165 -0.073635 0.047365
  C 2.549016 -0.113109 -0.023461
  C 3.174358 -0.983043 -0.850590
  C 4.626378 -0.962163 -0.908572
  C 5.330730 -0.851947 -2.027312
  H 6.401280 -0.889017 -2.030067
  H 0.709618 0.931257 0.224337
  H 0.723102 -0.715135 0.862160
  H 0.614400 -0.441513 -0.871840
  H 3.074876 0.517668 0.687155
  H 2.681167 -0.771513 -1.798596
  H 5.132891 -1.133555 0.032985
  H 4.856628 -0.667475 -2.975803
 13
 53.808288
  C 1.057941 -0.123161 0.051099
  C 2.528355 -0.017109 -0.132145
  C 3.172720 -1.007529 -0.853053
  C 4.614717 -1.044827 -0.927282
  C 5.337681 -0.866929 -2.028420
  H 6.413043 -0.968600 -2.030496
  H 0.641485 0.844003 0.289818
  H 0.846020 -0.824859 0.854914
  H 0.571239 -0.493592 -0.854056
  H 3.031946 0.700463 0.525249
  H 2.634370 -0.493277 -1.673712
  H 5.100801 -1.355317 -0.008154
  H 4.883834 -0.558543 -2.958796
 13
 73.979338
  C 1.040226 -0.149201 0.066080
  C 2.509993 -0.092742 -0.242938
  C 3.178597 -1.140804 -0.880732
  C 4.613942 -1.164986 -0.968989
  C 5.366461 -0.768236 -1.991694
  H 6.429314 -0.932344 -2.016519
  H 0.612252 0.847430 0.156788
  H 0.909736 -0.657796 1.021071
  H 0.495115 -0.713627 -0.687556
  H 3.029016 0.717679 0.287864
  H 2.624531 -0.214992 -1.527918
  H 5.069744 -1.697365 -0.141098
  H 4.943077 -0.253006 -2.840432
 13
 70.287034
  C 1.038892 -0.177202 0.088015
  C 2.493269 -0.055472 -0.326149
  C 3.196189 -1.160373 -0.862293
  C 4.614858 -1.182897 -0.964281
  C 5.398980 -0.805819 -1.971102
  H 6.456660 -0.999573 -1.974080
  H 0.557491 0.797376 0.182491
  H 0.993414 -0.658485 1.064535
  H 0.482179 -0.793773 -0.611596
  H 3.002723 0.791855 0.151262
  H 2.533812 0.054401 -1.490592
  H 5.039091 -1.728460 -0.124905
  H 5.004141 -0.284783 -2.828215
 13
 65.891698
  C 1.051194 -0.243206 0.094145
  C 2.472990 -0.018862 -0.400671
  C 3.183195 -1.147249 -0.944068
  C 4.586553 -1.194001 -1.034515
  C 5.440683 -0.781741 -1.968155
  H 6.483767 -1.038870 -1.939888
  H 0.544865 0.699919 0.294722
  H 1.077627 -0.809753 1.023550
  H 0.478319 -0.813941 -0.631095
  H 3.008226 0.744907 0.181278
  H 2.420012 0.383048 -1.451714
  H 4.940405 -1.836448 -0.226900
  H 5.111313 -0.183008 -2.800487
 13
 65.219840
  C 1.086386 -0.305559 0.124122
  C 2.415080 0.084564 -0.513140
  C 3.143507 -1.038573 -1.083984
  C 4.542950 -1.114995 -1.089614
  C 5.516775 -0.875640 -1.968899
  H 6.527339 -1.175728 -1.789707
  H 0.578890 0.577646 0.516308
  H 1.261585 -0.995572 0.950933
  H 0.437864 -0.794864 -0.602656
  H 2.995308 0.752205 0.159737
  H 2.203597 0.652428 -1.440633
  H 4.772098 -1.667905 -0.176865
  H 5.317768 -0.337211 -2.889400
 13
 62.977575
  C 1.087454 -0.207388 0.026666
  C 2.520262 -0.021399 -0.466855
  C 3.236084 -1.269466 -0.726064
  C 4.614701 -1.325102 -0.907513
  C 5.318188 -0.677924 -1.859428
  H 6.317721 -0.975764 -2.124141
  H 0.554608 0.740782 0.028031
  H 1.091331 -0.599667 1.040506
  H 0.557239 -0.910745 -0.609549
  H 3.062308 0.697290 0.162805
  H 2.497724 0.408944 -1.481537
  H 5.091745 -2.155287 -0.393245
  H 4.849783 0.056521 -2.493473
