 20
 0.000000
  H 1.509123 0.181916 0.502451
  C 2.589398 0.160332 0.448813
  C 3.322345 0.631661 1.622208
  C 2.440190 1.094674 2.774679
  C 3.275990 1.569485 3.959064
  C 3.150396 -0.309249 -0.719461
  C 4.524747 -0.407751 -0.966074
  C 5.068302 -0.880997 -2.143834
  H 4.460453 -1.216700 -2.977700
  O 6.338190 -0.970353 -2.367927
  H 3.996488 1.448273 1.331095
  H 3.995915 -0.159886 1.976932
  H 1.795265 0.276267 3.100173
  H 1.796055 1.911557 2.443881
  H 3.909689 0.769422 4.334913
  H 2.631837 1.895697 4.771352
  H 3.910654 2.406809 3.677914
  H 2.481122 -0.626403 -1.507760
  H 5.224362 -0.098863 -0.199008
  H 6.901662 -0.670022 -1.622787
 20
 16.331302
  H 1.488464 0.181010 0.501583
  C 2.570229 0.151069 0.426142
  C 3.331804 0.624705 1.604639
  C 2.466507 1.092287 2.770307
  C 3.319069 1.564017 3.944227
  C 3.118657 -0.322945 -0.754674
  C 4.551184 -0.434338 -1.031643
  C 5.035706 -0.903685 -2.202223
  H 4.541182 -1.255981 -3.082014
  O 6.281205 -0.874791 -2.128646
  H 4.003410 1.439311 1.305089
  H 4.004307 -0.170180 1.951351
  H 1.821276 0.275903 3.101320
  H 1.820557 1.910420 2.445206
  H 3.953300 0.761239 4.312560
  H 2.686095 1.893037 4.764596
  H 3.952407 2.399305 3.654863
  H 2.454199 -0.638404 -1.540506
  H 5.213518 -0.123056 -0.254671
  H 6.688594 -0.549907 -1.315882
 20
 56.273227
  H 1.489192 0.187328 0.519599
  C 2.567733 0.147680 0.419058
  C 3.344160 0.612693 1.574243
  C 2.489789 1.083106 2.750350
  C 3.354232 1.553500 3.914442
  C 3.077701 -0.323147 -0.755588
  C 4.579874 -0.448460 -1.064862
  C 5.016194 -0.913986 -2.234684
  H 4.635581 -1.280697 -3.162460
  O 6.209849 -0.802056 -1.943779
  H 4.009756 1.431782 1.265141
  H 4.013037 -0.190593 1.915752
  H 1.846832 0.269171 3.087656
  H 1.842499 1.901199 2.431732
  H 3.990631 0.749699 4.276649
  H 2.730034 1.883665 4.740827
  H 3.985475 2.387850 3.618308
  H 2.411129 -0.636645 -1.538929
  H 5.163153 -0.118555 -0.235406
  H 6.532398 -0.467587 -1.089197
 20
 109.635250
  H 1.464930 0.201408 0.542518
  C 2.540803 0.147577 0.424025
  C 3.333883 0.607122 1.574054
  C 2.492787 1.087696 2.751079
  C 3.368429 1.550972 3.914227
  C 3.028149 -0.327215 -0.748953
  C 4.671639 -0.459399 -1.098239
  C 5.016870 -0.935605 -2.286328
  H 4.690260 -1.318302 -3.230606
  O 6.188819 -0.770961 -1.884834
  H 4.000618 1.418201 1.261013
  H 3.991418 -0.200941 1.913595
  H 1.839265 0.278349 3.093152
  H 1.849987 1.915229 2.432124
  H 3.997789 0.739212 4.275705
  H 2.750042 1.889517 4.743490
  H 4.008967 2.378849 3.614660
  H 2.371895 -0.647887 -1.536075
  H 5.162800 -0.099821 -0.224465
  H 6.515851 -0.426632 -1.037778
 20
 140.775364
  H 1.406763 0.228186 0.595025
  C 2.494146 0.151040 0.424066
  C 3.330850 0.605548 1.569869
  C 2.489767 1.089206 2.764204
  C 3.377102 1.551734 3.911205
  C 2.858827 -0.318410 -0.732814
  C 4.812540 -0.477203 -1.140122
  C 5.017138 -0.943613 -2.313041
  H 4.668800 -1.317737 -3.242527
  O 6.281892 -0.763261 -1.850502
  H 3.974216 1.429008 1.237400
  H 3.964042 -0.218659 1.919220
  H 1.843602 0.270459 3.096839
  H 1.847565 1.914868 2.441611
  H 4.006154 0.747920 4.257761
  H 2.776406 1.886980 4.743102
  H 4.007460 2.370833 3.603017
  H 2.275483 -0.654056 -1.556056
  H 5.195560 -0.101251 -0.218136
  H 6.653512 -0.423047 -1.015185
 20
 156.875000
  H 1.277018 0.259559 0.676954
  C 2.337066 0.174404 0.454004
  C 3.228904 0.619515 1.576395
  C 2.456665 1.103543 2.793960
  C 3.401861 1.545609 3.914302
  C 2.660615 -0.301885 -0.700862
  C 5.023557 -0.497325 -1.187833
  C 5.118857 -0.972823 -2.362034
  H 4.753237 -1.349616 -3.286129
  O 6.446644 -0.799181 -1.913846
  H 3.873287 1.428342 1.223844
  H 3.872784 -0.206284 1.891158
  H 1.815800 0.305388 3.172414
  H 1.814955 1.945950 2.531684
  H 4.032068 0.721069 4.248836
  H 2.824241 1.887383 4.772641
  H 4.027781 2.378410 3.591556
  H 2.110535 -0.653734 -1.543911
  H 5.278086 -0.102622 -0.230185
  H 6.914489 -0.455479 -1.125299
 20
 163.284906
  H 1.144420 0.306921 0.782047
  C 2.199771 0.200701 0.507545
  C 3.147414 0.628837 1.594082
  C 2.421816 1.130828 2.843498
  C 3.403772 1.551302 3.925266
  C 2.493014 -0.281412 -0.656419
  C 5.231750 -0.512986 -1.246996
  C 5.226077 -0.999414 -2.413548
  H 4.827295 -1.391507 -3.322881
  O 6.597983 -0.830481 -1.999665
  H 3.792292 1.429229 1.215911
  H 3.789639 -0.213888 1.877012
  H 1.777520 0.334516 3.223615
  H 1.779840 1.976318 2.578573
  H 4.014179 0.707134 4.241955
  H 2.857225 1.888709 4.808628
  H 4.030957 2.362549 3.593745
  H 1.945448 -0.649721 -1.492853
  H 5.411469 -0.105663 -0.282615
  H 7.148044 -0.492825 -1.260278
 20
 162.618326
  H 0.970594 0.356428 0.898359
  C 2.011654 0.227790 0.575502
  C 3.013120 0.654120 1.616351
  C 2.359788 1.142575 2.906345
  C 3.399071 1.547107 3.944183
  C 2.274138 -0.225730 -0.606060
  C 5.472213 -0.504235 -1.319143
  C 5.380926 -1.039555 -2.470385
  H 4.965554 -1.510426 -3.347218
  O 6.803255 -0.859745 -2.132068
  H 3.641874 1.452087 1.210403
  H 3.677857 -0.179524 1.857713
  H 1.738657 0.341302 3.317277
  H 1.702352 1.990421 2.697127
  H 4.050825 0.712659 4.190945
  H 2.913467 1.901642 4.851683
  H 4.008663 2.367588 3.566511
  H 1.720268 -0.552026 -1.455092
  H 5.620260 -0.265551 -0.265671
  H 7.461967 -0.508957 -1.488226
 20
 164.896088
  H 0.887819 0.391077 0.973905
  C 1.914595 0.259070 0.630855
  C 2.941775 0.664726 1.659449
  C 2.314699 1.163143 2.953636
  C 3.376949 1.555519 3.978572
  C 2.151656 -0.211471 -0.549424
  C 5.634663 -0.552132 -1.400816
  C 5.487459 -1.072146 -2.546174
  H 5.069337 -1.513265 -3.426474
  O 6.906108 -0.909394 -2.208749
  H 3.576095 1.451381 1.237245
  H 3.592834 -0.195091 1.882609
  H 1.680452 0.374375 3.364969
  H 1.673385 2.018651 2.738844
  H 4.021545 0.715616 4.218518
  H 2.915246 1.927126 4.883203
  H 3.994282 2.360303 3.586680
  H 1.580789 -0.554262 -1.379500
  H 5.790124 -0.259506 -0.387736
  H 7.601362 -0.566890 -1.604541
 20
 165.155070
  H 0.757746 0.443974 1.090451
  C 1.783089 0.298284 0.718753
  C 2.840907 0.690922 1.719030
  C 2.246438 1.188957 3.035835
  C 3.333050 1.574350 4.030831
  C 1.984123 -0.172144 -0.469899
  C 5.833341 -0.603148 -1.536309
  C 5.647160 -1.161747 -2.730494
  H 5.235631 -1.619584 -3.635067
  O 7.073098 -0.970183 -2.347506
  H 3.467313 1.474386 1.287391
  H 3.483635 -0.168864 1.918745
  H 1.616517 0.402044 3.460798
  H 1.604316 2.050982 2.837561
  H 3.978553 0.729819 4.251874
  H 2.894681 1.950054 4.952981
  H 3.947049 2.376677 3.621352
  H 1.392664 -0.506535 -1.290211
  H 6.084936 -0.307762 -0.445104
  H 7.808468 -0.607271 -1.795728
 20
 163.888618
  H 0.640835 0.523372 1.184341
  C 1.654018 0.363152 0.794923
  C 2.735030 0.732086 1.780729
  C 2.169706 1.217629 3.114340
  C 3.278424 1.583841 4.093297
  C 1.835299 -0.134622 -0.384179
  C 6.088433 -0.668746 -1.694230
  C 5.806443 -1.220610 -2.794969
  H 5.323709 -1.670608 -3.633964
  O 7.287049 -1.073416 -2.512478
  H 3.363705 1.515229 1.350936
  H 3.372362 -0.137228 1.959294
  H 1.540695 0.435251 3.546578
  H 1.536163 2.091746 2.941041
  H 3.912653 0.725875 4.298453
  H 2.858394 1.945198 5.030191
  H 3.895209 2.380925 3.681664
  H 1.223477 -0.505042 -1.173842
  H 6.273331 -0.290706 -0.710675
  H 8.081717 -0.707273 -2.068153
 20
 163.654027
  H 0.575352 0.539684 1.252153
  C 1.582315 0.368917 0.855694
  C 2.673570 0.744982 1.825763
  C 2.121531 1.237391 3.161796
  C 3.240448 1.611118 4.126814
  C 1.745467 -0.119143 -0.311626
  C 6.235880 -0.723247 -1.760836
  C 5.873087 -1.226708 -2.869885
  H 5.371729 -1.632715 -3.713878
  O 7.375849 -1.129846 -2.593638
  H 3.292392 1.528382 1.383272
  H 3.312575 -0.123602 2.000286
  H 1.501183 0.456627 3.609113
  H 1.484502 2.109678 2.992989
  H 3.875182 0.752676 4.330971
  H 2.829099 1.969611 5.068487
  H 3.854853 2.404835 3.706765
  H 1.127047 -0.472104 -1.102595
  H 6.374123 -0.322532 -0.783978
  H 8.197235 -0.785360 -2.192937
 20
 163.707308
  H 0.496334 0.573986 1.329101
  C 1.497197 0.398300 0.918223
  C 2.604453 0.768045 1.875858
  C 2.071542 1.263763 3.218876
  C 3.205042 1.630775 4.169920
  C 1.642732 -0.096383 -0.264974
  C 6.363484 -0.758380 -1.861508
  C 5.937798 -1.260524 -2.941881
  H 5.421246 -1.659908 -3.762407
  O 7.479482 -1.155678 -2.668669
  H 3.220468 1.548379 1.425610
  H 3.238896 -0.105553 2.038821
  H 1.453038 0.486368 3.674276
  H 1.438242 2.140757 3.061555
  H 3.835738 0.767309 4.365540
  H 2.807586 1.987334 5.118675
  H 3.820548 2.419628 3.743532
  H 1.015903 -0.447242 -1.049198
  H 6.498783 -0.376910 -0.886815
  H 8.301119 -0.808276 -2.304714
 20
 163.154794
  H 0.409166 0.606851 1.412347
  C 1.398363 0.424889 0.983724
  C 2.527006 0.787923 1.917585
  C 2.025344 1.288050 3.273635
  C 3.180987 1.647665 4.200951
  C 1.521472 -0.072537 -0.200436
  C 6.477480 -0.797813 -1.932049
  C 5.997203 -1.282567 -2.999307
  H 5.460167 -1.649990 -3.823022
  O 7.570786 -1.197604 -2.733242
  H 3.136986 1.561538 1.450473
  H 3.159440 -0.090270 2.064546
  H 1.412720 0.515861 3.744680
  H 1.393630 2.168512 3.128279
  H 3.808880 0.779814 4.383622
  H 2.804972 2.006541 5.160374
  H 3.793590 2.431258 3.761430
  H 0.884944 -0.422100 -0.978242
  H 6.597317 -0.399487 -0.931211
  H 8.420846 -0.840005 -2.400308
