 11
 0.000000
  H 1.343750 0.142575 0.404346
  C 2.418174 0.115598 0.338394
  H 2.982001 0.457959 1.191910
  C 3.041785 -0.337029 -0.788605
  C 4.438949 -0.379037 -0.893919
  C 5.124823 -0.830341 -2.018774
  H 4.601440 -1.185703 -2.903769
  O 6.399469 -0.869131 -2.116305
  H 2.451425 -0.674845 -1.630052
  H 5.031965 -0.040363 -0.051190
  H 6.895295 -0.552133 -1.326623
 11
 18.537147
  H 1.377237 0.166975 0.469414
  C 2.501492 0.116251 0.339923
  H 3.097872 0.450784 1.169791
  C 3.053732 -0.346443 -0.812384
  C 4.495170 -0.420205 -0.998249
  C 5.075776 -0.865689 -2.108719
  H 4.658543 -1.235532 -3.031732
  O 6.301352 -0.801133 -1.946976
  H 2.427095 -0.676861 -1.631621
  H 5.076566 -0.078910 -0.151290
  H 6.662978 -0.460984 -1.091090
 11
 66.469939
  H 1.359064 0.192548 0.530198
  C 2.549037 0.118606 0.345728
  H 3.160975 0.446876 1.159963
  C 3.035434 -0.350356 -0.820098
  C 4.572466 -0.449235 -1.069074
  C 5.066649 -0.894373 -2.180291
  H 4.738316 -1.277372 -3.136539
  O 6.239432 -0.757652 -1.839185
  H 2.398755 -0.668392 -1.610103
  H 5.081699 -0.101848 -0.202691
  H 6.528596 -0.410763 -0.970958
 11
 116.545042
  H 1.328667 0.216418 0.571677
  C 2.490193 0.131944 0.367716
  H 3.082305 0.452422 1.206415
  C 2.878401 -0.330304 -0.770471
  C 4.751599 -0.463082 -1.103747
  C 5.045360 -0.913710 -2.240504
  H 4.733131 -1.292610 -3.180862
  O 6.289427 -0.765070 -1.830199
  H 2.373528 -0.690217 -1.642481
  H 5.098360 -0.079306 -0.171874
  H 6.660493 -0.418674 -0.999186
 11
 144.313579
  H 1.203627 0.254192 0.690774
  C 2.310361 0.151439 0.401491
  H 2.976827 0.435133 1.202721
  C 2.645103 -0.304916 -0.748990
  C 4.993421 -0.465834 -1.122811
  C 5.124725 -0.930756 -2.283794
  H 4.757198 -1.309881 -3.207288
  O 6.435307 -0.795104 -1.863526
  H 2.155481 -0.680082 -1.617407
  H 5.223171 -0.058263 -0.166284
  H 6.905907 -0.446933 -1.077315
 11
 151.786439
  H 0.991616 0.283641 0.821275
  C 2.042931 0.179664 0.487120
  H 2.751364 0.477645 1.245760
  C 2.365767 -0.242615 -0.686781
  C 5.280854 -0.482638 -1.161239
  C 5.264253 -0.947325 -2.333554
  H 4.872032 -1.307038 -3.258104
  O 6.652464 -0.863306 -1.946255
  H 1.852056 -0.630416 -1.537855
  H 5.383629 -0.068917 -0.173922
  H 7.257032 -0.545941 -1.239459
 11
 151.708617
  H 0.761598 0.353088 0.910422
  C 1.797920 0.214318 0.569932
  H 2.525098 0.501720 1.309124
  C 2.115749 -0.244732 -0.591167
  C 5.546134 -0.529793 -1.181417
  C 5.382150 -0.948719 -2.363218
  H 4.993843 -1.304807 -3.290344
  O 6.829709 -0.911512 -2.023107
  H 1.598663 -0.594395 -1.455473
  H 5.566067 -0.085875 -0.210201
  H 7.548088 -0.586283 -1.438193
 11
 152.310785
  H 0.593923 0.389347 0.972871
  C 1.634346 0.231814 0.639335
  H 2.367713 0.544396 1.366334
  C 1.956370 -0.224129 -0.522421
  C 5.714966 -0.569366 -1.235274
  C 5.481302 -0.956217 -2.408839
  H 5.086000 -1.289700 -3.341606
  O 6.937069 -0.950684 -2.049925
  H 1.420978 -0.581389 -1.376524
  H 5.706116 -0.095957 -0.277890
  H 7.687799 -0.608217 -1.513099
 11
 150.794870
  H 0.398021 0.413932 1.055427
  C 1.435784 0.263536 0.718129
  H 2.174592 0.594074 1.432972
  C 1.761473 -0.183520 -0.445516
  C 5.906664 -0.616661 -1.290619
  C 5.594997 -0.968618 -2.459524
  H 5.172788 -1.276237 -3.385243
  O 7.091908 -1.004061 -2.089942
  H 1.221598 -0.555207 -1.292505
  H 5.849793 -0.112248 -0.346789
  H 7.872562 -0.621918 -1.625536
 11
 145.978651
  H 0.207151 0.404463 1.169148
  C 1.236836 0.314919 0.795729
  H 1.982170 0.648953 1.503848
  C 1.551938 -0.081597 -0.388993
  C 6.079417 -0.667898 -1.343108
  C 5.717329 -0.966640 -2.527854
  H 5.300348 -1.284446 -3.453451
  O 7.230882 -1.095383 -2.100227
  H 1.034263 -0.539483 -1.205350
  H 5.991105 -0.156251 -0.406210
  H 7.999226 -0.580373 -1.751437
 11
 130.181407
  H 0.152225 0.193009 1.189058
  C 1.171357 0.292928 0.803431
  H 1.869354 0.656542 1.542640
  C 1.507255 0.079776 -0.422066
  C 6.128056 -0.683979 -1.211398
  C 5.798946 -1.017352 -2.404509
  H 5.279727 -1.377118 -3.262228
  O 7.234817 -1.169227 -2.051595
  H 1.065707 -0.283609 -1.321581
  H 6.060637 -0.177417 -0.273950
  H 7.870228 -0.439366 -2.271283
