15

C -3.474475 0.984403 -0.163635
C -2.035837 0.585963 -0.012582
C -1.645576 -0.483135 0.661583
C -0.235226 -0.95759 0.842447
C 0.800925 -0.081363 0.147114
H 1.225552319598583 -0.2411550612801347 0.20238006039431258
H -4.059009 0.169421 -0.587139
H -3.573222 1.859948 -0.802884
H -3.907496 1.221239 0.806737
H -1.317941 1.23586 -0.487542
H -2.394184 -1.110053 1.132856
H -0.015175 -1.017633 1.912391
H -0.16876 -1.97633 0.44442
H 0.549049 -0.047309 -0.914544
H 0.743622 0.933788 0.548328
