 17
 0.000000
  H 1.440054 0.116452 0.340641
  C 2.519572 0.103586 0.308345
  C 3.218305 0.597195 1.537269
  H 2.498351 0.900133 2.291676
  C 3.121476 -0.340526 -0.797666
  C 4.548621 -0.415634 -0.985025
  C 5.187957 -0.854688 -2.079191
  C 4.582091 -1.362752 -3.345274
  H 3.500039 -1.347833 -3.308774
  O 6.552523 -0.880483 -2.143599
  H 3.854341 1.453790 1.305187
  H 3.854445 -0.181888 1.962114
  H 2.501326 -0.670138 -1.618283
  H 5.153937 -0.080882 -0.150978
  H 4.926761 -2.381186 -3.524673
  H 4.927170 -0.751138 -4.178963
  H 6.921651 -0.549962 -1.319705
 17
 3.826708
  H 1.468179 -0.039881 0.459635
  C 2.540730 0.047722 0.344085
  C 3.274813 0.621404 1.515904
  H 2.583606 0.863979 2.318040
  C 3.092788 -0.372542 -0.797590
  C 4.500139 -0.341293 -1.057848
  C 5.172158 -0.838201 -2.108009
  C 4.616080 -1.328032 -3.399529
  H 3.539811 -1.207043 -3.429079
  O 6.533820 -0.965601 -1.992162
  H 3.798297 1.537444 1.238907
  H 4.008139 -0.087146 1.900863
  H 2.434161 -0.767007 -1.558785
  H 5.087849 0.137644 -0.280754
  H 4.870977 -2.378065 -3.538620
  H 5.071893 -0.771278 -4.216052
  H 6.666263 -0.764046 -1.057852
 17
 12.328687
  H 1.496400 -0.153415 0.495228
  C 2.556125 -0.009587 0.367546
  C 3.267082 0.677373 1.494759
  H 2.572722 0.908883 2.298658
  C 3.135493 -0.439227 -0.760515
  C 4.533317 -0.346269 -1.035043
  C 5.167897 -0.880876 -2.098652
  C 4.606625 -1.267850 -3.416654
  H 3.559097 -1.008003 -3.483593
  O 6.509912 -1.134262 -1.929368
  H 3.714770 1.617601 1.161215
  H 4.063219 0.047725 1.893862
  H 2.522706 -0.958116 -1.486675
  H 5.095422 0.336372 -0.417620
  H 4.739231 -2.332689 -3.608036
  H 5.160475 -0.732015 -4.182133
  H 6.559543 -0.963239 -0.978913
 17
 29.596226
  H 1.529961 -0.224508 0.552710
  C 2.574675 -0.022747 0.377301
  C 3.295189 0.763931 1.441183
  H 2.611068 1.043182 2.243958
  C 3.156624 -0.553939 -0.710541
  C 4.542190 -0.457200 -0.978867
  C 5.173186 -0.901017 -2.102715
  C 4.631564 -1.188223 -3.453831
  H 3.583621 -0.938179 -3.500153
  O 6.481798 -1.239177 -1.825356
  H 3.746925 1.662613 1.029693
  H 4.091500 0.167715 1.878554
  H 2.545438 -1.068191 -1.429860
  H 5.046064 0.339535 -0.445757
  H 4.738192 -2.243986 -3.697911
  H 5.194085 -0.630848 -4.190236
  H 6.273508 -1.141233 -0.859468
 17
 57.397663
  H 1.531325 -0.172071 0.545512
  C 2.589100 -0.024490 0.392361
  C 3.320043 0.735799 1.456614
  H 2.643202 1.027116 2.255187
  C 3.168738 -0.532842 -0.696702
  C 4.581873 -0.447300 -0.999321
  C 5.218756 -0.965599 -2.144505
  C 4.654280 -1.219491 -3.493102
  H 3.622304 -0.885360 -3.555058
  O 6.432363 -1.284283 -1.851813
  H 3.774264 1.641656 1.049778
  H 4.116899 0.129825 1.887161
  H 2.567955 -1.090487 -1.402532
  H 5.084817 0.411395 -0.555122
  H 4.718726 -2.281209 -3.730372
  H 5.253716 -0.688294 -4.231821
  H 5.907302 -0.985541 -0.593526
 17
 32.028353
  H 1.541064 -0.061099 0.403324
  C 2.617275 0.009897 0.325568
  C 3.310968 0.721645 1.453006
  H 2.593058 1.058269 2.213004
  C 3.233647 -0.548383 -0.703473
  C 4.716411 -0.508656 -0.916359
  C 5.319106 -1.000629 -2.178338
  C 4.605517 -1.244222 -3.462767
  H 3.570486 -0.932796 -3.414788
  O 6.497242 -1.265022 -2.013314
  H 3.820638 1.607964 1.089088
  H 4.067269 0.075902 1.912383
  H 2.665750 -1.082407 -1.447087
  H 5.135236 0.448761 -0.536272
  H 4.737440 -2.282661 -3.769975
  H 5.091686 -0.641299 -4.224728
  H 5.656512 -0.983912 -0.403619
 17
 13.810102
  H 1.612556 -0.338959 0.492189
  C 2.661720 -0.103772 0.363157
  C 3.291328 0.762330 1.409214
  H 2.581707 0.983153 2.203085
  C 3.303820 -0.575030 -0.687686
  C 4.773377 -0.474500 -0.926299
  C 5.370731 -1.049667 -2.174355
  C 4.631823 -1.147607 -3.478233
  H 3.633106 -0.745406 -3.404366
  O 6.504220 -1.469324 -2.035145
  H 3.638988 1.698374 0.982742
  H 4.141613 0.256248 1.863352
  H 2.766893 -1.168809 -1.407651
  H 5.228052 0.470480 -0.597683
  H 4.532768 -2.205771 -3.729132
  H 5.195283 -0.661151 -4.271738
  H 5.499639 -1.098330 -0.288784
 17
 3.598888
  H 1.590100 -0.240379 0.406905
  C 2.656036 -0.076031 0.324348
  C 3.298362 0.732571 1.409488
  H 2.558017 1.090747 2.119902
  C 3.318713 -0.608504 -0.690516
  C 4.789633 -0.454969 -0.909617
  C 5.406430 -0.979608 -2.182927
  C 4.588244 -1.153710 -3.433245
  H 3.576853 -0.775255 -3.330714
  O 6.548858 -1.371122 -2.108363
  H 3.823471 1.594112 0.992925
  H 4.030868 0.130629 1.948639
  H 2.797048 -1.194870 -1.430528
  H 5.148646 0.554090 -0.671084
  H 4.568233 -2.209329 -3.693080
  H 5.085062 -0.629382 -4.248973
  H 5.414881 -1.014989 -0.193427
 17
 -1.075811
  H 1.608918 -0.273228 0.368340
  C 2.675946 -0.115342 0.300774
  C 3.280887 0.799187 1.319518
  H 2.525375 1.171327 2.005477
  C 3.364000 -0.734388 -0.648497
  C 4.841771 -0.595407 -0.838130
  C 5.430849 -1.056323 -2.153612
  C 4.563548 -1.036288 -3.386338
  H 3.588061 -0.598412 -3.205614
  O 6.577577 -1.432178 -2.188426
  H 3.757608 1.653740 0.837726
  H 4.045663 0.277880 1.894764
  H 2.855721 -1.401833 -1.329195
  H 5.165765 0.436512 -0.666196
  H 4.452462 -2.054948 -3.753556
  H 5.076402 -0.469615 -4.162032
  H 5.388906 -1.176683 -0.085269
 17
 -2.763623
  H 1.671068 -0.481212 0.397844
  C 2.721414 -0.249273 0.285343
  C 3.232407 0.905585 1.089323
  H 2.437492 1.341558 1.686412
  C 3.459414 -0.988518 -0.530138
  C 4.930057 -0.793760 -0.744087
  C 5.420252 -1.166130 -2.126417
  C 4.524605 -0.762499 -3.271976
  H 3.675837 -0.175359 -2.936243
  O 6.478403 -1.717978 -2.297447
  H 3.636722 1.682026 0.439705
  H 4.030686 0.585209 1.757915
  H 3.006268 -1.815300 -1.058491
  H 5.193372 0.258574 -0.595779
  H 4.171917 -1.659969 -3.777424
  H 5.107587 -0.195442 -3.995246
  H 5.501957 -1.373512 -0.013559
