 27
 0.000000
  C 0.806821 0.045691 0.325965
  C 2.295119 0.057318 0.119847
  C 3.197332 -0.011724 1.343516
  C 2.545389 -0.089469 2.721250
  C 3.604198 -0.151292 3.816941
  C 2.889402 0.124479 -1.070340
  C 2.346212 0.203541 -2.471484
  C 0.846488 0.219372 -2.751985
  C 0.590162 0.304144 -4.254329
  H 3.972716 0.125300 -1.084863
  H 0.534643 -0.013495 1.374790
  H 0.356582 -0.816177 -0.160511
  H 0.356582 0.956816 -0.060465
  H 3.845236 0.870594 1.335770
  H 3.845239 -0.887572 1.236560
  H 1.917801 -0.980669 2.792848
  H 1.917791 0.788020 2.892653
  H 4.236435 -1.028246 3.694599
  H 3.131766 -0.206514 4.795518
  H 4.236435 0.733863 3.794026
  H 2.770785 -0.644796 -3.023084
  H 2.770782 1.108540 -2.924142
  H 0.377624 1.080040 -2.275813
  H 0.377626 -0.689399 -2.375660
  H 1.022879 1.211480 -4.671025
  H -0.479484 0.315369 -4.453226
  H 1.022883 -0.550563 -4.770455
 27
 9.859606
  C 0.726409 0.045739 0.325126
  C 2.339619 0.059456 0.081979
  C 3.247218 -0.008741 1.290654
  C 2.544152 -0.093313 2.789366
  C 3.608769 -0.154550 3.874681
  C 2.915302 0.126537 -1.106806
  C 2.362666 0.205291 -2.502492
  C 0.860601 0.220118 -2.765198
  C 0.586610 0.304719 -4.264564
  H 3.999621 0.127844 -1.129944
  H 0.474880 -0.013646 1.377488
  H 0.275251 -0.815018 -0.157091
  H 0.275253 0.955282 -0.057196
  H 3.892582 0.872276 1.283041
  H 3.892586 -0.883310 1.183976
  H 1.918754 -0.983183 2.859069
  H 1.918748 0.783065 2.958736
  H 4.240516 -1.031227 3.747648
  H 3.142863 -0.209942 4.856285
  H 4.240513 0.730854 3.847074
  H 2.783453 -0.642688 -3.057696
  H 2.783453 1.110347 -2.958777
  H 0.397573 1.080132 -2.282431
  H 0.397573 -0.688747 -2.382243
  H 1.014276 1.212293 -4.686038
  H -0.485160 0.315268 -4.451503
  H 1.014277 -0.549684 -4.785459
 27
 31.970479
  C 0.677606 0.045010 0.338049
  C 2.411299 0.061636 0.043353
  C 3.306745 -0.005403 1.231487
  C 2.521680 -0.096084 2.838462
  C 3.578046 -0.156963 3.917438
  C 2.955940 0.129248 -1.154846
  C 2.385534 0.207466 -2.541029
  C 0.879327 0.220024 -2.763554
  C 0.564536 0.304188 -4.255157
  H 4.042632 0.131462 -1.194055
  H 0.473147 -0.014726 1.396639
  H 0.234674 -0.815093 -0.140138
  H 0.234675 0.953449 -0.040340
  H 3.945012 0.873326 1.246814
  H 3.945016 -0.880276 1.147862
  H 1.899762 -0.982640 2.882089
  H 1.899760 0.779932 2.981546
  H 4.210277 -1.033821 3.792446
  H 3.106977 -0.212241 4.897085
  H 4.210273 0.728391 3.891879
  H 2.798204 -0.639809 -3.103688
  H 2.798205 1.112660 -3.004802
  H 0.430429 1.078466 -2.265473
  H 0.430429 -0.689001 -2.365203
  H 0.980188 1.212285 -4.687552
  H -0.511599 0.313164 -4.414211
  H 0.980186 -0.549500 -4.786960
 27
 58.036157
  C 0.621973 0.045054 0.337283
  C 2.476785 0.064032 0.000917
  C 3.368957 -0.003035 1.189540
  C 2.503830 -0.099897 2.906034
  C 3.560743 -0.160621 3.982252
  C 2.995437 0.132450 -1.211559
  C 2.404404 0.210196 -2.589407
  C 0.892740 0.220567 -2.773164
  C 0.537310 0.304201 -4.255377
  H 4.082500 0.135586 -1.267125
  H 0.454320 -0.014974 1.401036
  H 0.189384 -0.819900 -0.143315
  H 0.189385 0.958585 -0.042956
  H 4.003407 0.879777 1.231353
  H 4.003415 -0.884947 1.131774
  H 1.883106 -0.989491 2.924369
  H 1.883097 0.781985 3.024327
  H 4.193360 -1.037506 3.858500
  H 3.087536 -0.215927 4.962387
  H 4.193354 0.724619 3.957930
  H 2.807897 -0.636361 -3.159542
  H 2.807898 1.115516 -3.060688
  H 0.457861 1.077802 -2.260700
  H 0.457857 -0.688880 -2.360384
  H 0.940349 1.212788 -4.698502
  H -0.542621 0.311578 -4.386056
  H 0.940350 -0.548775 -4.797905
 27
 85.175181
  C 0.571718 0.045010 0.338038
  C 2.547655 0.066550 -0.043746
  C 3.427118 0.000149 1.133082
  C 2.480164 -0.102765 2.956853
  C 3.533445 -0.163125 4.026652
  C 3.035937 0.134868 -1.254453
  C 2.423614 0.211991 -2.621240
  C 0.908794 0.220247 -2.767532
  C 0.514601 0.303316 -4.239715
  H 4.123178 0.138937 -1.326554
  H 0.440056 -0.015201 1.405044
  H 0.150653 -0.821813 -0.142804
  H 0.150654 0.960426 -0.042233
  H 4.053361 0.883295 1.200648
  H 4.053369 -0.884992 1.100868
  H 1.863975 -0.992177 2.950485
  H 1.863971 0.781710 3.050579
  H 4.165877 -1.039997 3.904077
  H 3.058417 -0.218416 5.006544
  H 4.165874 0.721976 4.003495
  H 2.817339 -0.633999 -3.198589
  H 2.817342 1.117564 -3.099757
  H 0.487826 1.076234 -2.241960
  H 0.487826 -0.689427 -2.341588
  H 0.905087 1.212462 -4.693007
  H -0.568234 0.309134 -4.342767
  H 0.905082 -0.549059 -4.792398
 27
 111.365475
  C 0.517520 0.043932 0.357147
  C 2.612744 0.068475 -0.077832
  C 3.485741 0.002280 1.095316
  C 2.458242 -0.106710 3.026752
  C 3.511797 -0.166809 4.091934
  C 3.079406 0.138553 -1.319737
  C 2.440475 0.215110 -2.676491
  C 0.922609 0.221177 -2.784001
  C 0.488864 0.303608 -4.244868
  H 4.167265 0.143872 -1.414001
  H 0.422580 -0.016446 1.427127
  H 0.105103 -0.826704 -0.123606
  H 0.105105 0.963128 -0.022607
  H 4.104618 0.888440 1.188995
  H 4.104622 -0.888786 1.088710
  H 1.845783 -0.998193 2.997585
  H 1.845780 0.782387 3.098056
  H 4.144223 -1.044074 3.969906
  H 3.036511 -0.222182 5.073250
  H 4.144221 0.718621 4.069365
  H 2.822956 -0.630500 -3.261983
  H 2.822958 1.121216 -3.163139
  H 0.515970 1.076110 -2.245756
  H 0.515967 -0.688879 -2.345345
  H 0.865999 1.213269 -4.708332
  H -0.596299 0.307808 -4.319242
  H 0.865997 -0.548142 -4.807721
 27
 131.932157
  C 0.502850 0.044766 0.342387
  C 2.703702 0.071456 -0.130665
  C 3.537724 0.003877 1.067062
  C 2.415016 -0.111765 3.116397
  C 3.489174 -0.170745 4.161652
  C 3.105110 0.141933 -1.379666
  C 2.435734 0.217800 -2.724218
  C 0.915983 0.221963 -2.797949
  C 0.444976 0.303728 -4.246996
  H 4.190467 0.149096 -1.506582
  H 0.490709 -0.015391 1.408466
  H 0.140312 -0.834796 -0.154463
  H 0.140314 0.974639 -0.052361
  H 4.127978 0.898023 1.238403
  H 4.127981 -0.903862 1.136726
  H 1.814140 -1.009138 3.045648
  H 1.814133 0.787860 3.147050
  H 4.117697 -1.051051 4.038642
  H 3.027024 -0.226586 5.151410
  H 4.117673 0.717806 4.138459
  H 2.809719 -0.623195 -3.320960
  H 2.809716 1.120580 -3.222557
  H 0.525217 1.075343 -2.246875
  H 0.525223 -0.687976 -2.346384
  H 0.811075 1.213285 -4.719626
  H -0.641597 0.306485 -4.295805
  H 0.811075 -0.546890 -4.818950
 27
 149.966846
  C 0.508178 0.045823 0.322973
  C 2.805471 0.074440 -0.184233
  C 3.582388 0.007627 0.999518
  C 2.368184 -0.115321 3.179572
  C 3.436683 -0.173504 4.211199
  C 3.160766 0.145507 -1.443343
  C 2.448842 0.220059 -2.764154
  C 0.927288 0.220913 -2.779109
  C 0.402193 0.301586 -4.208563
  H 4.241737 0.154774 -1.607575
  H 0.544421 -0.014171 1.385876
  H 0.170598 -0.836743 -0.178909
  H 0.170609 0.979264 -0.076406
  H 4.147658 0.899817 1.238780
  H 4.147712 -0.905770 1.136906
  H 1.770929 -1.008199 3.083726
  H 1.770926 0.782672 3.184730
  H 4.064928 -1.053786 4.083411
  H 2.982680 -0.229711 5.207907
  H 4.064922 0.715561 4.183198
  H 2.802802 -0.625087 -3.368243
  H 2.802800 1.127806 -3.269295
  H 0.557932 1.073969 -2.213122
  H 0.557942 -0.690418 -2.312721
  H 0.747869 1.212133 -4.694474
  H -0.685582 0.301998 -4.215954
  H 0.747870 -0.548485 -4.793824
