13

H 1.388734610904663 0.13608260284722568 0.390848013842382
C 2.458709 0.139076 0.397619
C 3.239141 0.609852 1.568419
H 2.689786194385447 0.9521544496827139 2.4204391467626283
C 3.07285 -0.324759 -0.756985
C 4.450298 -0.413051 -0.977376
C 5.123279 -0.864414 -2.102741
H 4.764069041756903 -1.2395303821476717 -3.038238678106918
H 6.193255689128199 -0.8617806036963327 -2.0961873791559866
H 3.895117 1.422998 1.23706
H 3.895552 -0.206124 1.891843
H 2.402903 -0.638834 -1.538514
H 5.070703 -0.081812 -0.152336
