 20
 0.000000
  C 1.111111 0.034000 0.057760
  C 2.607737 0.044036 0.037225
  C 3.323233 0.540084 -0.978533
  C 4.760906 0.549970 -0.998778
  C 5.480769 1.048472 -2.019545
  C 6.919234 1.057283 -2.037600
  C 7.637182 1.552465 -3.051583
  C 9.127092 1.570696 -3.088916
  H 0.749595 -0.416850 0.980967
  H 0.715643 -0.546441 -0.775222
  H 0.715643 1.047814 0.003339
  H 3.107114 -0.377035 0.899433
  H 2.812024 0.958915 -1.836177
  H 5.265144 0.129677 -0.138152
  H 4.977072 1.468852 -2.880367
  H 7.425963 0.637437 -1.177884
  H 7.138791 1.974169 -3.915085
  H 9.561548 1.132837 -2.192305
  H 9.486077 2.597059 -3.177769
  H 9.486081 1.009688 -3.952968
 20
 7.490160
  C 0.996001 0.027351 0.071376
  C 2.651885 0.040204 0.045071
  C 3.356939 0.534718 -0.967545
  C 4.793598 0.548153 -0.995057
  C 5.508654 1.047942 -2.018459
  C 6.945880 1.060692 -2.044580
  C 7.657824 1.556493 -3.059828
  C 9.146769 1.578717 -3.105340
  H 0.641430 -0.423120 0.993807
  H 0.605684 -0.551323 -0.760819
  H 0.605684 1.039457 0.016045
  H 3.149681 -0.379748 0.904990
  H 2.841657 0.952446 -1.822932
  H 5.302523 0.129011 -0.136789
  H 5.000132 1.467071 -2.876717
  H 7.456953 0.642054 -1.187338
  H 7.154416 1.976856 -3.920586
  H 9.585122 1.141856 -2.210771
  H 9.503130 2.605455 -3.196622
  H 9.503136 1.019393 -3.971184
 20
 23.496919
  C 0.879062 0.023462 0.079343
  C 2.694417 0.033053 0.059712
  C 3.385483 0.526787 -0.951307
  C 4.824441 0.544426 -0.987427
  C 5.533782 1.045008 -2.012452
  C 6.970277 1.063198 -2.049715
  C 7.677357 1.560726 -3.068499
  C 9.165060 1.588519 -3.125415
  H 0.538839 -0.426117 0.999955
  H 0.514711 -0.551727 -0.757308
  H 0.514717 1.036928 0.018522
  H 3.172602 -0.388381 0.922672
  H 2.866487 0.943953 -1.805539
  H 5.339156 0.126449 -0.131544
  H 5.019030 1.462713 -2.867792
  H 7.486421 0.645698 -1.194802
  H 7.167294 1.979567 -3.926137
  H 9.607441 1.152647 -2.232875
  H 9.518275 2.615662 -3.220611
  H 9.518276 1.032039 -3.993975
 20
 41.656926
  C 0.755539 0.018410 0.089684
  C 2.730350 0.022342 0.081640
  C 3.416209 0.521091 -0.939650
  C 4.857545 0.542315 -0.983108
  C 5.561570 1.044644 -2.011711
  C 6.997753 1.067424 -2.058369
  C 7.697500 1.565576 -3.078427
  C 9.184588 1.598178 -3.145184
  H 0.428488 -0.433555 1.015181
  H 0.417226 -0.559283 -0.758390
  H 0.417224 1.042445 0.023810
  H 3.188685 -0.404078 0.954811
  H 2.895013 0.937639 -1.792615
  H 5.377363 0.125517 -0.129637
  H 5.040793 1.461211 -2.864719
  H 7.519169 0.650997 -1.205654
  H 7.180743 1.983037 -3.933243
  H 9.631838 1.163097 -2.254268
  H 9.534682 2.626230 -3.243750
  H 9.534689 1.043790 -4.016543
 20
 59.639344
  C 0.648044 0.019725 0.086999
  C 2.782218 0.018630 0.089246
  C 3.444520 0.510446 -0.917847
  C 4.884197 0.535747 -0.969660
  C 5.578804 1.039449 -2.001073
  C 7.014442 1.067453 -2.058430
  C 7.708739 1.569636 -3.086745
  C 9.195094 1.607757 -3.164811
  H 0.338272 -0.432675 1.013389
  H 0.336957 -0.557822 -0.765902
  H 0.336964 1.047454 0.018044
  H 3.220752 -0.409779 0.966488
  H 2.919074 0.925446 -1.767641
  H 5.410420 0.120574 -0.119518
  H 5.050788 1.454199 -2.850359
  H 7.542382 0.652495 -1.208728
  H 7.184301 1.985344 -3.937973
  H 9.648969 1.174145 -2.276899
  H 9.541021 2.636748 -3.266814
  H 9.541012 1.055516 -4.038995
 20
 74.443356
  C 0.527296 0.030739 0.064481
  C 2.819462 -0.003987 0.135566
  C 3.475691 0.494753 -0.885715
  C 4.921246 0.526866 -0.951493
  C 5.601205 1.034055 -1.990054
  C 7.034064 1.070652 -2.065038
  C 7.708397 1.572716 -3.093110
  C 9.192075 1.620037 -3.190012
  H 0.258146 -0.423487 0.994617
  H 0.313824 -0.550648 -0.808459
  H 0.313844 1.076595 -0.013769
  H 3.178930 -0.444957 1.038536
  H 2.949474 0.910231 -1.736474
  H 5.457099 0.113965 -0.106012
  H 5.061550 1.445757 -2.833086
  H 7.572694 0.658710 -1.221511
  H 7.170293 1.984679 -3.936655
  H 9.655317 1.188831 -2.306928
  H 9.531620 2.650933 -3.295922
  H 9.531612 1.069824 -4.068016
 20
 88.514861
  C 0.394806 0.028698 0.068623
  C 2.845548 -0.016200 0.160563
  C 3.498398 0.484579 -0.864885
  C 4.947077 0.520503 -0.938453
  C 5.621758 1.030901 -1.983575
  C 7.059735 1.071849 -2.067444
  C 7.737523 1.583287 -3.114705
  C 9.222994 1.634985 -3.220566
  H 0.138794 -0.429349 1.006570
  H 0.208770 -0.556679 -0.812391
  H 0.208764 1.083453 -0.011454
  H 3.185380 -0.461151 1.071687
  H 2.970542 0.898920 -1.713323
  H 5.487603 0.109155 -0.096144
  H 5.075663 1.441539 -2.824431
  H 7.604288 0.660523 -1.225178
  H 7.192907 1.994533 -3.956784
  H 9.693530 1.204487 -2.338943
  H 9.558748 2.666586 -3.329444
  H 9.558806 1.086577 -4.101117
 20
 100.387048
  C 0.297648 0.033867 0.058062
  C 2.907154 -0.018383 0.165046
  C 3.545324 0.479575 -0.854629
  C 4.991539 0.521325 -0.940134
  C 5.649583 1.031774 -1.985365
  C 7.075692 1.078344 -2.080757
  C 7.719355 1.576921 -3.101688
  C 9.198904 1.634913 -3.220435
  H 0.061845 -0.423422 0.994461
  H 0.139707 -0.550979 -0.822684
  H 0.139714 1.088023 -0.022262
  H 3.229490 -0.464416 1.078382
  H 3.011226 0.892712 -1.700600
  H 5.540872 0.112270 -0.102523
  H 5.094837 1.439575 -2.820411
  H 7.629181 0.670809 -1.246253
  H 7.164893 1.984185 -3.935610
  H 9.678812 1.206996 -2.344132
  H 9.528539 2.668075 -3.333122
  H 9.528545 1.088582 -4.104470
 20
 109.241362
  C 0.161775 0.051587 0.021714
  C 2.924796 -0.043869 0.217206
  C 3.568202 0.454285 -0.802868
  C 5.018640 0.504367 -0.905414
  C 5.664913 1.022644 -1.966674
  C 7.092095 1.077994 -2.080013
  C 7.729327 1.587746 -3.123799
  C 9.208242 1.655026 -3.261548
  H -0.026220 -0.413204 0.973467
  H 0.114079 -0.544243 -0.872307
  H 0.114062 1.123134 -0.058132
  H 3.170286 -0.499824 1.150868
  H 3.034713 0.867252 -1.648508
  H 5.577220 0.097877 -0.073041
  H 5.097910 1.427684 -2.796075
  H 7.657215 0.673288 -1.251289
  H 7.162156 1.992188 -3.951966
  H 9.703210 1.229838 -2.390903
  H 9.529421 2.690335 -3.379759
  H 9.529453 1.111637 -4.150780
 20
 116.626290
  C 0.037429 0.046730 0.031696
  C 2.960512 -0.047224 0.224092
  C 3.599466 0.452837 -0.799887
  C 5.049743 0.506131 -0.909022
  C 5.682759 1.020175 -1.961614
  C 7.111816 1.078682 -2.081412
  C 7.748922 1.594281 -3.137170
  C 9.227719 1.664751 -3.281450
  H -0.144154 -0.414991 0.977165
  H -0.013196 -0.544903 -0.855748
  H -0.013202 1.110405 -0.047402
  H 3.211619 -0.501974 1.155283
  H 3.061441 0.864467 -1.642780
  H 5.612797 0.101655 -0.080779
  H 5.110290 1.423807 -2.788120
  H 7.682350 0.674744 -1.254271
  H 7.176942 1.997735 -3.963310
  H 9.727580 1.240572 -2.412853
  H 9.546222 2.700969 -3.401129
  H 9.546288 1.121930 -4.172368
 20
 122.224726
  C -0.099081 0.043632 0.038079
  C 2.982669 -0.056936 0.243978
  C 3.616817 0.441865 -0.777421
  C 5.069124 0.498765 -0.893941
  C 5.710430 1.025841 -1.973224
  C 7.145298 1.088355 -2.101245
  C 7.771761 1.602184 -3.153400
  C 9.251022 1.676407 -3.305393
  H -0.269548 -0.418847 0.985109
  H -0.135470 -0.549069 -0.849346
  H -0.135463 1.107868 -0.040157
  H 3.226944 -0.511540 1.174870
  H 3.073549 0.854123 -1.621594
  H 5.637443 0.093905 -0.064918
  H 5.133799 1.428326 -2.797394
  H 7.721361 0.686053 -1.277459
  H 7.194395 2.004075 -3.976345
  H 9.755739 1.254202 -2.440867
  H 9.566356 2.713024 -3.426706
  H 9.566305 1.134746 -4.197383
 20
 126.259582
  C -0.220761 0.050870 0.023270
  C 3.018068 -0.065165 0.260836
  C 3.652409 0.434010 -0.761330
  C 5.102192 0.497272 -0.890886
  C 5.719602 1.018843 -1.958900
  C 7.154142 1.087859 -2.100242
  C 7.769857 1.606015 -3.161275
  C 9.248593 1.687213 -3.327566
  H -0.365206 -0.414363 0.975937
  H -0.215312 -0.545761 -0.864971
  H -0.215306 1.118142 -0.052364
  H 3.242035 -0.521287 1.194829
  H 3.103559 0.845932 -1.604813
  H 5.679948 0.094640 -0.066427
  H 5.133134 1.418077 -2.776407
  H 7.739947 0.688148 -1.281764
  H 7.182645 2.005382 -3.979044
  H 9.763452 1.267703 -2.468564
  H 9.557914 2.725229 -3.451921
  H 9.557805 1.147158 -4.222399
 20
 129.264216
  C -0.348740 0.048901 0.027235
  C 3.049505 -0.069525 0.269744
  C 3.680437 0.430547 -0.754244
  C 5.130235 0.497059 -0.890432
  C 5.742917 1.020628 -1.962523
  C 7.167755 1.091872 -2.108389
  C 7.779253 1.612528 -3.174528
  C 9.254147 1.696456 -3.346395
  H -0.485265 -0.414761 0.976674
  H -0.338770 -0.545543 -0.856955
  H -0.338774 1.111768 -0.047641
  H 3.274694 -0.526727 1.205950
  H 3.129937 0.839820 -1.592306
  H 5.709712 0.097203 -0.071648
  H 5.152695 1.419101 -2.778476
  H 7.756764 0.693317 -1.292273
  H 7.188427 2.010648 -3.989742
  H 9.774211 1.277039 -2.487538
  H 9.560629 2.735405 -3.471999
  H 9.560679 1.156633 -4.243097
 20
 131.348250
  C -0.482857 0.045429 0.034390
  C 3.075043 -0.073977 0.278874
  C 3.701261 0.426915 -0.746804
  C 5.150118 0.497088 -0.890504
  C 5.755230 1.021860 -1.965069
  C 7.185395 1.097261 -2.119468
  C 7.788943 1.618682 -3.187177
  C 9.264294 1.706617 -3.367255
  H -0.611373 -0.419970 0.987396
  H -0.468482 -0.551003 -0.851939
  H -0.468480 1.111101 -0.040228
  H 3.301311 -0.530174 1.213024
  H 3.144631 0.836004 -1.584488
  H 5.736034 0.097785 -0.072854
  H 5.159265 1.418666 -2.777599
  H 7.780615 0.700169 -1.306349
  H 7.192429 2.015268 -3.999250
  H 9.789615 1.289121 -2.512354
  H 9.567495 2.746292 -3.494502
  H 9.567465 1.167741 -4.265347
