 23
 0.000000
  C 0.988857 0.145821 0.415221
  C 2.463519 0.136323 0.390967
  C 3.236131 0.604909 1.555935
  H 2.625423 0.938171 2.385331
  C 3.066724 -0.330469 -0.770508
  C 4.441775 -0.416041 -0.984203
  C 5.124611 -0.866973 -2.109085
  C 4.628040 -1.388939 -3.411225
  C 3.138218 -1.502946 -3.696270
  H 2.995155 -1.902717 -4.693675
  O 6.445345 -0.860967 -2.094521
  H 0.583964 0.520794 1.347905
  H 0.605211 -0.862159 0.251315
  H 0.604803 0.759629 -0.400769
  H 3.889158 1.426316 1.253871
  H 3.889613 -0.196631 1.906423
  H 2.388771 -0.641828 -1.545027
  H 5.066606 -0.085972 -0.162289
  H 5.088351 -2.375564 -3.536453
  H 5.088706 -0.762291 -4.183322
  H 2.657810 -0.528670 -3.653781
  H 2.657528 -2.177997 -2.992683
  H 6.831878 -0.528320 -1.262734
 23
 -0.346298
  C 0.985914 0.140071 0.460376
  C 2.458799 0.127790 0.381912
  C 3.244687 0.603440 1.535601
  H 2.602682 0.915679 2.352885
  C 3.045711 -0.340557 -0.787341
  C 4.422485 -0.437516 -0.984844
  C 5.119443 -0.875926 -2.104134
  C 4.634971 -1.374774 -3.422558
  C 3.152854 -1.466724 -3.728366
  H 3.036400 -1.853751 -4.736662
  O 6.438516 -0.879502 -2.068197
  H 0.621838 0.705668 1.312074
  H 0.620030 -0.885440 0.549738
  H 0.546189 0.535338 -0.453525
  H 3.874456 1.447169 1.245686
  H 3.914323 -0.177236 1.897722
  H 2.373213 -0.638082 -1.566599
  H 5.045735 -0.127751 -0.155794
  H 5.090980 -2.362539 -3.554252
  H 5.118649 -0.744823 -4.175302
  H 2.678345 -0.491817 -3.695352
  H 2.651326 -2.150128 -3.058605
  H 6.828058 -0.563516 -1.230123
 23
 -0.600066
  C 0.983158 0.143068 0.462508
  C 2.454014 0.121485 0.374861
  C 3.238138 0.565841 1.545384
  H 2.592396 0.851888 2.369391
  C 3.043886 -0.337848 -0.795627
  C 4.421033 -0.429273 -0.989276
  C 5.121928 -0.865186 -2.110705
  C 4.639775 -1.361588 -3.428245
  C 3.154776 -1.444116 -3.738544
  H 3.038992 -1.822193 -4.750558
  O 6.441052 -0.868289 -2.073938
  H 0.631156 0.861744 1.196800
  H 0.636399 -0.843362 0.785103
  H 0.519157 0.335307 -0.502447
  H 3.860055 1.420171 1.282675
  H 3.911719 -0.221668 1.885968
  H 2.378696 -0.635823 -1.585209
  H 5.043703 -0.115537 -0.157783
  H 5.089875 -2.352756 -3.556520
  H 5.130700 -0.734750 -4.180125
  H 2.684548 -0.466926 -3.699420
  H 2.644890 -2.134915 -3.072412
  H 6.829603 -0.555491 -1.235503
 23
 -0.829398
  C 0.980292 0.109261 0.481800
  C 2.448635 0.093762 0.378801
  C 3.228441 0.542746 1.549550
  H 2.576749 0.825130 2.373363
  C 3.040187 -0.356912 -0.793757
  C 4.419181 -0.435023 -0.988855
  C 5.122944 -0.858306 -2.112593
  C 4.643798 -1.337660 -3.439518
  C 3.160178 -1.393364 -3.764937
  H 3.048689 -1.748890 -4.787470
  O 6.440859 -0.861556 -2.071617
  H 0.631025 0.961921 1.060317
  H 0.659008 -0.783159 1.029483
  H 0.492912 0.091653 -0.490037
  H 3.847398 1.401947 1.287714
  H 3.905090 -0.241588 1.891643
  H 2.377097 -0.659468 -1.584320
  H 5.037940 -0.123550 -0.156895
  H 5.080439 -2.335609 -3.573986
  H 5.150947 -0.713181 -4.180540
  H 2.701447 -0.408053 -3.708441
  H 2.634823 -2.091656 -3.119259
  H 6.826372 -0.558409 -1.228602
 23
 -0.977093
  C 0.971326 0.070721 0.507361
  C 2.437829 0.062239 0.391050
  C 3.217635 0.523708 1.557904
  H 2.566731 0.811381 2.376045
  C 3.029368 -0.384781 -0.782548
  C 4.409044 -0.449889 -0.980578
  C 5.115595 -0.856658 -2.107448
  C 4.639877 -1.307290 -3.443447
  C 3.156429 -1.344811 -3.776219
  H 3.047729 -1.652184 -4.813713
  O 6.434432 -0.857904 -2.065939
  H 0.619271 1.025379 0.897573
  H 0.668473 -0.676010 1.244692
  H 0.471192 -0.146627 -0.433413
  H 3.836285 1.378786 1.290593
  H 3.893299 -0.258236 1.906286
  H 2.367945 -0.693974 -1.570474
  H 5.027085 -0.135390 -0.148730
  H 5.068572 -2.303946 -3.594678
  H 5.155808 -0.671607 -4.170596
  H 2.701349 -0.365625 -3.675289
  H 2.626859 -2.071277 -3.164807
  H 6.819523 -0.574353 -1.212287
 23
 -0.998070
  C 0.976993 0.023680 0.515151
  C 2.446618 0.030950 0.396660
  C 3.223052 0.519294 1.558312
  H 2.567633 0.818669 2.371371
  C 3.038759 -0.399646 -0.781921
  C 4.418242 -0.461495 -0.983276
  C 5.122129 -0.852376 -2.116799
  C 4.642892 -1.281118 -3.461715
  C 3.159693 -1.295998 -3.798106
  H 3.049078 -1.588211 -4.837844
  O 6.440998 -0.862258 -2.072935
  H 0.615958 1.039329 0.701460
  H 0.679379 -0.555050 1.389513
  H 0.481132 -0.375549 -0.368271
  H 3.839963 1.370065 1.276727
  H 3.902490 -0.257402 1.925704
  H 2.372277 -0.700480 -1.567805
  H 5.036034 -0.173931 -0.141869
  H 5.059910 -2.281068 -3.625824
  H 5.167879 -0.642389 -4.179695
  H 2.715585 -0.312284 -3.685016
  H 2.621766 -2.021753 -3.199380
  H 6.824804 -0.595454 -1.219603
 23
 -0.408264
  C 0.992075 -0.166067 0.582211
  C 2.450525 -0.040051 0.426610
  C 3.204916 0.607177 1.518723
  H 2.554286 0.870177 2.345481
  C 3.041987 -0.453739 -0.758381
  C 4.419294 -0.553635 -0.953711
  C 5.120726 -0.880743 -2.111441
  C 4.637148 -1.186065 -3.486179
  C 3.157446 -1.118262 -3.825541
  H 3.039351 -1.338878 -4.883434
  O 6.436527 -0.936561 -2.063415
  H 0.548205 0.830419 0.610221
  H 0.748711 -0.635036 1.534643
  H 0.530049 -0.721128 -0.230482
  H 3.695251 1.509707 1.154315
  H 3.994378 -0.045500 1.890933
  H 2.363023 -0.717337 -1.550367
  H 5.037339 -0.368454 -0.082036
  H 5.016792 -2.184860 -3.726061
  H 5.191343 -0.512402 -4.150735
  H 2.753300 -0.125767 -3.647756
  H 2.586558 -1.860220 -3.274188
  H 6.822965 -0.753949 -1.187596
 23
 -0.830829
  C 0.983308 -0.105091 0.565394
  C 2.445643 -0.032768 0.428594
  C 3.216779 0.525254 1.558829
  H 2.563389 0.825405 2.370453
  C 3.036014 -0.434614 -0.763547
  C 4.413602 -0.484129 -0.971619
  C 5.114650 -0.820048 -2.127472
  C 4.630312 -1.184375 -3.489188
  C 3.148872 -1.167637 -3.823525
  H 3.034686 -1.409551 -4.878101
  O 6.431970 -0.828604 -2.090639
  H 0.573273 0.906844 0.484582
  H 0.701324 -0.464962 1.553548
  H 0.520874 -0.717834 -0.202561
  H 3.799801 1.386156 1.239184
  H 3.924195 -0.209809 1.942086
  H 2.371977 -0.731291 -1.555981
  H 5.034176 -0.242665 -0.117732
  H 5.035517 -2.181052 -3.697976
  H 5.162467 -0.520143 -4.178692
  H 2.714876 -0.185304 -3.662281
  H 2.602899 -1.917799 -3.259673
  H 6.820485 -0.602112 -1.223073
 23
 -0.797402
  C 0.982451 -0.079064 0.543399
  C 2.449367 -0.035301 0.428689
  C 3.225156 0.465101 1.583219
  H 2.571430 0.782517 2.389799
  C 3.039345 -0.423764 -0.765348
  C 4.417341 -0.450000 -0.981243
  C 5.115089 -0.793519 -2.135895
  C 4.624560 -1.184579 -3.483834
  C 3.142055 -1.183509 -3.803411
  H 3.020209 -1.431158 -4.854801
  O 6.434193 -0.784686 -2.109996
  H 0.588438 0.915233 0.307489
  H 0.665896 -0.304121 1.560698
  H 0.532618 -0.777274 -0.155295
  H 3.859628 1.301804 1.293783
  H 3.885034 -0.314769 1.964245
  H 2.373225 -0.724287 -1.556548
  H 5.041240 -0.179606 -0.134057
  H 5.034598 -2.180954 -3.677689
  H 5.145058 -0.530151 -4.188566
  H 2.700944 -0.204629 -3.642793
  H 2.607648 -1.937023 -3.228958
  H 6.825567 -0.542392 -1.252276
