28

C 0.97716 0.1339 0.390824
C 2.455161 0.140974 0.392878
C 3.235089 0.612055 1.565363
C 2.453314 1.098242 2.783071
H 3.1162568365138616 1.4118396207295423 3.562213687694447
C 3.079739 -0.320812 -0.757117
C 4.459191 -0.410027 -0.97063
C 5.12361 -0.865372 -2.099632
C 4.619688 -1.387093 -3.401578
C 3.127746 -1.500235 -3.693821
C 2.899027 -2.062108 -5.094211
H 6.193605854074827 -0.8672866416893724 -2.0973502441224
H 0.539411 0.495543 1.314463
H 0.613329 -0.880573 0.221048
H 0.59485 0.751966 -0.423466
H 3.889645 1.426484 1.234244
H 3.893158 -0.203239 1.887088
H 1.816822 0.298857 3.167805
H 1.813217 1.939692 2.510312
H 2.425163 -0.639879 -1.550464
H 5.082671 -0.079297 -0.148289
H 5.071153 -2.377876 -3.528246
H 5.07578 -0.761618 -4.177674
H 2.655554 -0.518219 -3.640453
H 2.650836 -2.170116 -2.976907
H 3.338193 -1.416549 -5.851745
H 1.832979 -2.13967 -5.294926
H 3.333528 -3.054473 -5.193792
