 26
 0.000000
  C 0.979740 0.149390 0.431060
  C 2.453758 0.135447 0.394793
  C 3.237326 0.602175 1.552883
  H 2.638603 0.939820 2.389368
  C 3.053241 -0.331906 -0.769530
  C 4.429399 -0.415972 -0.980470
  C 5.114264 -0.865775 -2.104501
  C 4.620750 -1.387316 -3.408038
  C 3.131388 -1.506412 -3.706616
  C 2.923031 -2.068120 -5.110756
  O 6.434580 -0.858852 -2.087558
  H 0.583769 0.521999 1.370999
  H 0.592548 -0.857401 0.268217
  H 0.584917 0.767304 -0.377671
  H 3.891372 1.419793 1.242896
  H 3.890692 -0.202151 1.897175
  H 2.388116 -0.647336 -1.554529
  H 5.052431 -0.085879 -0.157472
  H 5.081712 -2.373894 -3.533508
  H 5.082218 -0.759938 -4.179426
  H 2.654497 -0.527071 -3.655867
  H 2.654123 -2.180340 -2.994482
  H 3.367475 -1.418645 -5.861269
  H 1.861101 -2.154181 -5.326484
  H 3.367166 -3.056183 -5.206142
  H 6.819082 -0.526415 -1.254655
 26
 5.980671
  C 0.997811 0.138924 0.515322
  C 2.416600 0.146677 0.413780
  C 3.221113 0.611896 1.554722
  H 2.603205 0.957122 2.374280
  C 3.021766 -0.331562 -0.780203
  C 4.394860 -0.410098 -0.984741
  C 5.097035 -0.862826 -2.113127
  C 4.616160 -1.390027 -3.422629
  C 3.130884 -1.517247 -3.736163
  C 2.945019 -2.082777 -5.141871
  O 6.418252 -0.850320 -2.087043
  H 0.591251 0.537745 1.442213
  H 0.544546 -0.839510 0.319226
  H 0.816750 0.770272 -0.322319
  H 3.888963 1.419702 1.255063
  H 3.858265 -0.197026 1.913995
  H 2.353858 -0.646344 -1.557116
  H 5.019315 -0.077190 -0.159877
  H 5.085921 -2.373366 -3.541992
  H 5.084687 -0.762764 -4.190067
  H 2.648948 -0.539844 -3.693848
  H 2.650109 -2.193573 -3.028472
  H 3.396592 -1.431817 -5.886759
  H 1.887204 -2.176852 -5.373941
  H 3.397804 -3.067673 -5.228767
  H 6.803239 -0.517647 -1.257968
 26
 13.783113
  C 0.981503 0.089564 0.501491
  C 2.406549 0.127897 0.408446
  C 3.236103 0.599136 1.546092
  H 2.618167 0.983256 2.348872
  C 3.018364 -0.337267 -0.790337
  C 4.395174 -0.395482 -0.993723
  C 5.089938 -0.838016 -2.108709
  C 4.608589 -1.375069 -3.408761
  C 3.122152 -1.516392 -3.705946
  C 2.927890 -2.092657 -5.106906
  O 6.412113 -0.809278 -2.089666
  H 0.541414 0.451498 1.414253
  H 0.477244 -0.783161 0.121450
  H 1.075241 0.830258 -0.288204
  H 3.946307 1.367099 1.250297
  H 3.810358 -0.242170 1.935458
  H 2.353855 -0.669850 -1.572124
  H 5.020581 -0.056159 -0.175141
  H 5.087395 -2.353585 -3.525644
  H 5.066012 -0.747588 -4.181700
  H 2.633978 -0.541655 -3.666025
  H 2.656039 -2.193668 -2.989107
  H 3.368338 -1.442562 -5.859613
  H 1.869240 -2.198031 -5.329863
  H 3.389927 -3.073687 -5.191444
  H 6.798558 -0.467295 -1.259534
 26
 21.816562
  C 0.971925 0.071148 0.561776
  C 2.396908 0.134479 0.408153
  C 3.231087 0.611813 1.538690
  H 2.621489 1.006139 2.338693
  C 2.999030 -0.335620 -0.791611
  C 4.375020 -0.391051 -0.996332
  C 5.075579 -0.835333 -2.112721
  C 4.608658 -1.378632 -3.417893
  C 3.125420 -1.529733 -3.731987
  C 2.949616 -2.111392 -5.134065
  O 6.396551 -0.799216 -2.086514
  H 0.549144 0.395001 1.503104
  H 0.413499 -0.719916 0.077536
  H 1.235212 0.892757 -0.140952
  H 3.947363 1.367676 1.242832
  H 3.782640 -0.238187 1.925199
  H 2.334686 -0.680326 -1.575300
  H 4.998160 -0.048311 -0.179473
  H 5.093460 -2.355773 -3.526631
  H 5.070752 -0.748445 -4.186944
  H 2.631183 -0.558491 -3.701081
  H 2.656150 -2.207986 -3.019137
  H 3.394844 -1.460592 -5.883568
  H 1.893779 -2.224064 -5.368697
  H 3.418943 -3.089776 -5.210637
  H 6.772051 -0.451996 -1.251347
 26
 27.691224
  C 0.967929 0.038049 0.574583
  C 2.386495 0.129204 0.395459
  C 3.216605 0.625211 1.534488
  H 2.601055 1.028592 2.328004
  C 2.998221 -0.342368 -0.804351
  C 4.375049 -0.391822 -1.004248
  C 5.078129 -0.833490 -2.111582
  C 4.612943 -1.381911 -3.424315
  C 3.127811 -1.532163 -3.734105
  C 2.946251 -2.113433 -5.133313
  O 6.404322 -0.796424 -2.084290
  H 0.548637 0.333929 1.519051
  H 0.387687 -0.680342 0.014946
  H 1.361970 0.913002 -0.049406
  H 3.936674 1.385142 1.234723
  H 3.765728 -0.221828 1.935473
  H 2.346632 -0.689066 -1.577884
  H 4.994341 -0.046918 -0.185817
  H 5.095834 -2.355171 -3.532602
  H 5.072402 -0.755557 -4.192471
  H 2.634862 -0.559416 -3.700884
  H 2.660279 -2.209609 -3.018522
  H 3.389625 -1.463764 -5.884189
  H 1.890173 -2.224781 -5.363815
  H 3.414071 -3.091855 -5.210956
  H 6.776336 -0.447968 -1.243628
 26
 31.254771
  C 0.967697 0.002405 0.590022
  C 2.380909 0.135860 0.399242
  C 3.215279 0.640273 1.529877
  H 2.595823 1.050196 2.327678
  C 2.993907 -0.343986 -0.807890
  C 4.368321 -0.391690 -1.009334
  C 5.072405 -0.834910 -2.109361
  C 4.613494 -1.385693 -3.423639
  C 3.129055 -1.536059 -3.739126
  C 2.952194 -2.116510 -5.139536
  O 6.408662 -0.797724 -2.079591
  H 0.536998 0.243564 1.543978
  H 0.373322 -0.615297 -0.062479
  H 1.461266 0.940528 0.050317
  H 3.925352 1.402001 1.210657
  H 3.775816 -0.192987 1.940747
  H 2.330239 -0.696839 -1.573287
  H 4.987420 -0.042830 -0.189528
  H 5.095420 -2.357843 -3.527864
  H 5.074911 -0.760724 -4.189565
  H 2.636298 -0.563016 -3.706019
  H 2.659065 -2.213793 -3.025044
  H 3.398713 -1.466271 -5.888790
  H 1.896570 -2.227715 -5.374121
  H 3.420635 -3.095378 -5.216035
  H 6.773127 -0.452754 -1.246500
 26
 34.728122
  C 0.963934 -0.021429 0.616117
  C 2.373312 0.150572 0.401441
  C 3.222290 0.650870 1.530547
  H 2.607898 1.058058 2.336222
  C 2.983307 -0.339124 -0.809701
  C 4.353831 -0.385112 -1.013000
  C 5.061956 -0.836582 -2.112469
  C 4.611829 -1.390018 -3.423421
  C 3.135418 -1.539134 -3.748123
  C 2.967903 -2.121853 -5.154577
  O 6.395986 -0.801161 -2.077685
  H 0.533024 0.200962 1.572899
  H 0.354188 -0.572344 -0.082234
  H 1.530820 0.956002 0.113637
  H 3.915161 1.411685 1.203259
  H 3.796864 -0.179052 1.937946
  H 2.311737 -0.697295 -1.569867
  H 4.974025 -0.029931 -0.193573
  H 5.096314 -2.370161 -3.522447
  H 5.081316 -0.764908 -4.193103
  H 2.644412 -0.567080 -3.718370
  H 2.661122 -2.216054 -3.037476
  H 3.419398 -1.473540 -5.899535
  H 1.914006 -2.232798 -5.397429
  H 3.435729 -3.099462 -5.227686
  H 6.756338 -0.454136 -1.242558
 26
 38.350905
  C 0.964669 -0.050722 0.605225
  C 2.367270 0.152986 0.380534
  C 3.227083 0.652068 1.519974
  H 2.619009 1.057789 2.325572
  C 2.974279 -0.337303 -0.818578
  C 4.342899 -0.384686 -1.017701
  C 5.057322 -0.842227 -2.121184
  C 4.611886 -1.387992 -3.412515
  C 3.141632 -1.531272 -3.734422
  C 2.972215 -2.111585 -5.136739
  O 6.398722 -0.811128 -2.087159
  H 0.523576 0.186137 1.585961
  H 0.361713 -0.586243 -0.101603
  H 1.591779 0.943937 0.104233
  H 3.925012 1.417884 1.190905
  H 3.793102 -0.162541 1.918277
  H 2.306164 -0.696321 -1.582487
  H 4.965656 -0.025918 -0.193088
  H 5.085842 -2.355327 -3.508028
  H 5.077774 -0.772309 -4.172736
  H 2.655590 -0.557910 -3.703643
  H 2.667528 -2.205829 -3.023596
  H 3.425452 -1.464693 -5.881917
  H 1.920304 -2.219036 -5.378735
  H 3.436637 -3.089934 -5.210177
  H 6.761911 -0.463997 -1.253005
 26
 40.329118
  C 0.964107 -0.080757 0.606024
  C 2.364641 0.176408 0.381798
  C 3.215517 0.654327 1.530300
  H 2.599342 1.051228 2.333050
  C 2.997256 -0.329000 -0.829486
  C 4.367227 -0.372258 -1.017549
  C 5.083059 -0.833799 -2.114055
  C 4.624942 -1.392971 -3.421353
  C 3.141049 -1.529013 -3.729946
  C 2.953070 -2.111951 -5.126770
  O 6.417293 -0.805162 -2.077636
  H 0.509361 0.159950 1.554271
  H 0.366172 -0.592587 -0.130096
  H 1.637103 0.974951 0.096680
  H 3.912578 1.423485 1.215647
  H 3.784444 -0.178877 1.929591
  H 2.336497 -0.687876 -1.590087
  H 4.978931 -0.011794 -0.199749
  H 5.098312 -2.375118 -3.516593
  H 5.092786 -0.777630 -4.195081
  H 2.658925 -0.550318 -3.696898
  H 2.667612 -2.199808 -3.010241
  H 3.403763 -1.468047 -5.880540
  H 1.893845 -2.213675 -5.357385
  H 3.412202 -3.096756 -5.201649
  H 6.778057 -0.454825 -1.244907
 26
 42.852471
  C 0.966406 -0.092205 0.634971
  C 2.363299 0.192282 0.391439
  C 3.228241 0.657494 1.533577
  H 2.623304 1.054635 2.339321
  C 2.981852 -0.318786 -0.819772
  C 4.348200 -0.368159 -1.015012
  C 5.060363 -0.831673 -2.108563
  C 4.609690 -1.395737 -3.425178
  C 3.144046 -1.535500 -3.751369
  C 2.981490 -2.117256 -5.144489
  O 6.392502 -0.802973 -2.064853
  H 0.517400 0.158859 1.583901
  H 0.368752 -0.589307 -0.103590
  H 1.683912 0.988034 0.112215
  H 3.934817 1.433043 1.209992
  H 3.792551 -0.176934 1.924517
  H 2.306183 -0.678846 -1.584956
  H 4.965668 -0.006905 -0.196667
  H 5.086279 -2.382686 -3.515935
  H 5.083809 -0.778891 -4.197140
  H 2.660414 -0.562760 -3.727078
  H 2.664898 -2.205689 -3.041860
  H 3.439438 -1.474280 -5.887931
  H 1.930553 -2.222726 -5.389998
  H 3.443657 -3.095562 -5.210838
  H 6.750668 -0.450919 -1.229735
 26
 43.939815
  C 0.972687 -0.125365 0.626849
  C 2.360672 0.210684 0.380885
  C 3.224073 0.660199 1.536002
  H 2.612849 1.057699 2.341022
  C 2.996295 -0.315475 -0.835576
  C 4.361142 -0.361126 -1.019552
  C 5.082282 -0.829759 -2.111699
  C 4.631407 -1.393368 -3.416138
  C 3.140682 -1.528729 -3.740239
  C 2.963381 -2.116694 -5.136642
  O 6.414182 -0.805150 -2.065702
  H 0.508273 0.129813 1.564739
  H 0.377612 -0.611518 -0.127349
  H 1.726783 1.024068 0.083931
  H 3.925613 1.425204 1.227220
  H 3.784311 -0.185624 1.928107
  H 2.327212 -0.673697 -1.592703
  H 4.970215 0.003014 -0.201597
  H 5.102860 -2.376163 -3.502426
  H 5.108742 -0.781986 -4.190366
  H 2.659930 -0.550404 -3.715907
  H 2.658876 -2.195808 -3.023567
  H 3.419277 -1.479568 -5.885349
  H 1.908258 -2.216889 -5.375354
  H 3.418933 -3.098757 -5.203540
  H 6.772429 -0.451360 -1.232998
 26
 44.738491
  C 0.979403 -0.146103 0.646975
  C 2.361793 0.226169 0.384387
  C 3.231533 0.667995 1.538621
  H 2.623387 1.068893 2.341359
  C 2.988721 -0.306833 -0.828619
  C 4.351098 -0.355819 -1.018191
  C 5.070979 -0.828871 -2.111004
  C 4.619836 -1.395153 -3.418151
  C 3.148325 -1.526418 -3.747437
  C 2.981901 -2.117914 -5.148324
  O 6.398804 -0.809708 -2.059729
  H 0.516585 0.112896 1.582305
  H 0.383263 -0.632804 -0.109949
  H 1.773618 1.048753 0.078573
  H 3.939844 1.433526 1.227449
  H 3.784449 -0.178207 1.928768
  H 2.309335 -0.664344 -1.580580
  H 4.961631 0.006563 -0.204518
  H 5.088994 -2.380737 -3.501616
  H 5.099724 -0.790275 -4.188279
  H 2.669420 -0.547051 -3.728758
  H 2.658919 -2.194173 -3.031274
  H 3.452413 -1.471967 -5.905315
  H 1.916710 -2.217878 -5.397595
  H 3.443934 -3.115001 -5.210038
  H 6.759245 -0.455732 -1.225150
 26
 43.472322
  C 0.989386 -0.182899 0.655038
  C 2.352838 0.252385 0.375925
  C 3.225437 0.670627 1.541515
  H 2.616616 1.074577 2.344138
  C 3.000339 -0.304913 -0.843002
  C 4.359032 -0.345961 -1.025364
  C 5.085109 -0.827331 -2.117246
  C 4.631774 -1.397765 -3.418089
  C 3.148892 -1.521393 -3.747298
  C 2.976769 -2.114559 -5.139539
  O 6.408908 -0.816588 -2.058870
  H 0.516956 0.082280 1.586843
  H 0.395098 -0.670464 -0.103450
  H 1.820593 1.112678 0.038038
  H 3.939208 1.426177 1.243704
  H 3.762671 -0.185290 1.928381
  H 2.323474 -0.668777 -1.592343
  H 4.967222 0.022889 -0.211094
  H 5.095375 -2.386759 -3.496303
  H 5.117086 -0.799067 -4.194088
  H 2.674795 -0.536620 -3.731216
  H 2.655921 -2.183464 -3.027639
  H 3.445211 -1.479988 -5.894672
  H 1.920238 -2.208020 -5.384273
  H 3.427587 -3.106985 -5.198529
  H 6.769659 -0.460369 -1.225901
 26
 43.203099
  C 1.003277 -0.210059 0.660881
  C 2.349768 0.272436 0.367478
  C 3.223565 0.676232 1.541288
  H 2.612369 1.083515 2.341237
  C 3.003131 -0.296811 -0.846987
  C 4.358125 -0.337921 -1.025794
  C 5.085660 -0.825511 -2.114139
  C 4.631247 -1.398257 -3.413567
  C 3.150014 -1.516957 -3.746265
  C 2.978688 -2.115127 -5.141576
  O 6.407384 -0.820969 -2.052444
  H 0.528085 0.052102 1.588675
  H 0.418077 -0.704214 -0.091779
  H 1.869823 1.148966 0.011850
  H 3.947583 1.431617 1.248933
  H 3.753719 -0.192437 1.931023
  H 2.327192 -0.661834 -1.594653
  H 4.967362 0.037678 -0.210309
  H 5.090877 -2.389365 -3.488762
  H 5.122803 -0.802713 -4.193124
  H 2.681877 -0.535252 -3.733459
  H 2.655488 -2.171493 -3.030963
  H 3.449737 -1.486296 -5.895692
  H 1.923610 -2.205398 -5.388879
  H 3.424716 -3.107061 -5.197256
  H 6.770964 -0.463123 -1.222496
