 25
 0.000000
  C 0.980367 0.140793 0.401301
  C 2.454090 0.140962 0.401239
  C 3.237296 0.608388 1.564713
  C 2.459940 1.096591 2.780731
  H 3.145189 1.409260 3.559127
  C 3.067460 -0.325143 -0.759491
  C 4.448690 -0.414290 -0.982119
  C 5.102551 -0.864311 -2.103442
  C 4.623932 -1.382948 -3.395859
  C 3.139666 -1.506587 -3.704754
  H 3.007303 -1.907269 -4.703281
  H 6.183618 -0.852807 -2.074857
  H 0.547134 0.510943 1.323001
  H 0.610281 -0.870869 0.228803
  H 0.609928 0.751971 -0.422982
  H 3.896972 1.416576 1.228529
  H 3.897274 -0.207585 1.880854
  H 1.827446 0.305973 3.179762
  H 1.827205 1.943472 2.522240
  H 2.403570 -0.641560 -1.546954
  H 5.081356 -0.086824 -0.166572
  H 5.092336 -2.368378 -3.519712
  H 5.092752 -0.756852 -4.166599
  H 2.654077 -0.533886 -3.666632
  H 2.653681 -2.182896 -3.004879
 25
 9.609529
  C 0.956279 0.176422 0.489814
  C 2.435225 0.109697 0.323346
  C 3.287344 0.563447 1.452856
  C 2.581120 1.063681 2.698996
  H 3.332575 1.356593 3.429092
  C 2.841794 -0.374648 -0.882422
  C 4.204539 -0.397563 -0.940698
  C 5.001384 -0.820688 -1.995226
  C 4.674964 -1.350594 -3.315385
  C 3.226374 -1.524804 -3.749798
  H 3.203030 -1.930574 -4.761355
  H 6.072874 -0.754971 -1.832023
  H 0.620654 0.562164 1.449373
  H 0.532173 -0.813284 0.342090
  H 0.532093 0.788545 -0.301785
  H 3.937769 1.367621 1.105692
  H 3.938118 -0.257326 1.758210
  H 1.966856 0.291275 3.152307
  H 1.967106 1.935233 2.492506
  H 2.158575 -0.683454 -1.650945
  H 4.776911 -0.058691 -0.097258
  H 5.201591 -2.313500 -3.402780
  H 5.201801 -0.715516 -4.044129
  H 2.702900 -0.573699 -3.764939
  H 2.702850 -2.222695 -3.103449
 25
 35.508650
  C 0.978853 0.195184 0.536794
  C 2.472241 0.083396 0.258592
  C 3.331268 0.535551 1.383513
  C 2.637268 1.044257 2.649905
  H 3.410336 1.329734 3.360860
  C 2.699826 -0.415036 -0.981482
  C 4.053177 -0.387800 -0.915365
  C 4.939397 -0.790826 -1.919927
  C 4.698370 -1.330107 -3.264423
  C 3.277692 -1.529793 -3.763060
  H 3.305460 -1.935755 -4.776389
  H 5.995076 -0.699116 -1.691647
  H 0.699630 0.583005 1.500852
  H 0.519803 -0.788097 0.414477
  H 0.519595 0.819772 -0.232255
  H 3.976493 1.350645 1.046141
  H 3.976893 -0.285932 1.703719
  H 2.031071 0.280615 3.120081
  H 2.031249 1.921122 2.461145
  H 1.996162 -0.713049 -1.722518
  H 4.598541 -0.047481 -0.068300
  H 5.246484 -2.277837 -3.327536
  H 5.246940 -0.688591 -3.964956
  H 2.737956 -0.584952 -3.799826
  H 2.737950 -2.238621 -3.137266
 25
 71.417419
  C 1.015409 0.204666 0.560724
  C 2.505110 0.063119 0.209229
  C 3.358316 0.525756 1.358987
  C 2.680298 1.039017 2.635510
  H 3.472108 1.318159 3.329763
  C 2.586272 -0.446017 -1.055443
  C 3.934763 -0.375644 -0.884002
  C 4.873805 -0.769444 -1.865922
  C 4.703605 -1.313503 -3.223467
  C 3.316239 -1.541373 -3.793567
  H 3.404729 -1.944188 -4.800538
  H 5.919168 -0.661739 -1.596981
  H 0.765061 0.593786 1.527352
  H 0.539735 -0.776052 0.454372
  H 0.539413 0.838106 -0.195265
  H 3.999415 1.347913 1.026679
  H 4.000076 -0.297020 1.688291
  H 2.078682 0.277819 3.122338
  H 2.078676 1.925433 2.459853
  H 1.864028 -0.737678 -1.779624
  H 4.501943 -0.043242 -0.055394
  H 5.272219 -2.252569 -3.260644
  H 5.272701 -0.660049 -3.898566
  H 2.760615 -0.608203 -3.858713
  H 2.760508 -2.261847 -3.197130
 25
 110.161748
  C 1.048995 0.206235 0.565555
  C 2.547014 0.049424 0.164821
  C 3.371304 0.523081 1.348187
  C 2.710054 1.031195 2.627180
  H 3.513694 1.305638 3.311606
  C 2.509977 -0.465247 -1.126515
  C 3.864092 -0.356881 -0.861093
  C 4.838669 -0.753854 -1.833837
  C 4.706276 -1.303974 -3.191012
  C 3.337104 -1.543287 -3.792364
  H 3.452279 -1.945830 -4.785804
  H 5.877565 -0.637934 -1.540950
  H 0.813930 0.594092 1.538112
  H 0.567251 -0.769859 0.467770
  H 0.563512 0.844638 -0.176921
  H 4.008134 1.352260 1.020323
  H 4.012670 -0.301552 1.679425
  H 2.109581 0.263761 3.125875
  H 2.105956 1.929074 2.462359
  H 1.772699 -0.755448 -1.845561
  H 4.457009 -0.030098 -0.048413
  H 5.284058 -2.243497 -3.210025
  H 5.287459 -0.646596 -3.858704
  H 2.780252 -0.619400 -3.874988
  H 2.775264 -2.261461 -3.210184
 25
 135.606967
  C 1.051423 0.174437 0.485025
  C 2.650610 0.037770 0.074566
  C 3.400700 0.535656 1.365598
  C 2.703315 1.011269 2.635604
  H 3.498943 1.282528 3.332120
  C 2.465181 -0.434140 -1.175465
  C 3.896153 -0.323492 -0.868045
  C 4.825706 -0.725082 -1.782902
  C 4.694672 -1.305004 -3.158294
  C 3.319873 -1.543439 -3.745313
  H 3.432995 -1.967261 -4.742499
  H 5.864356 -0.612256 -1.503800
  H 0.897776 0.561938 1.486855
  H 0.589594 -0.802434 0.413578
  H 0.574296 0.837591 -0.224695
  H 4.027134 1.376712 1.049417
  H 4.041682 -0.293154 1.683204
  H 2.117740 0.235561 3.116936
  H 2.103693 1.901172 2.485177
  H 1.718968 -0.706882 -1.857484
  H 4.551147 0.014460 -0.077991
  H 5.235589 -2.249455 -3.149312
  H 5.250480 -0.652699 -3.829428
  H 2.772455 -0.611785 -3.848847
  H 2.758451 -2.256877 -3.150486
 25
 152.119071
  C 1.064540 0.185764 0.503918
  C 2.714314 0.073723 0.030825
  C 3.409669 0.538956 1.352169
  C 2.687815 0.956855 2.630350
  H 3.473277 1.213870 3.341064
  C 2.453572 -0.352269 -1.231463
  C 3.914194 -0.239374 -0.859893
  C 4.823520 -0.694192 -1.772580
  C 4.690652 -1.324530 -3.130408
  C 3.310520 -1.576780 -3.719464
  H 3.429212 -2.040663 -4.698025
  H 5.868835 -0.586105 -1.510825
  H 0.941005 0.548342 1.508258
  H 0.629657 -0.796295 0.421020
  H 0.585266 0.859943 -0.184710
  H 4.023095 1.403120 1.076025
  H 4.057162 -0.291733 1.648635
  H 2.110106 0.154726 3.079656
  H 2.075292 1.844393 2.507769
  H 1.711402 -0.627939 -1.929778
  H 4.600608 0.131876 -0.100235
  H 5.226522 -2.275792 -3.077369
  H 5.258173 -0.699781 -3.824983
  H 2.769891 -0.643742 -3.866555
  H 2.736565 -2.264083 -3.100991
 25
 168.061254
  C 1.058304 0.188968 0.498180
  C 2.775235 0.086610 -0.012706
  C 3.422905 0.531687 1.344221
  C 2.689896 0.920493 2.621134
  H 3.471327 1.163291 3.343510
  C 2.436156 -0.311003 -1.261590
  C 3.941562 -0.195087 -0.841156
  C 4.830504 -0.675455 -1.762792
  C 4.684841 -1.331849 -3.109423
  C 3.306178 -1.594506 -3.682399
  H 3.421656 -2.077811 -4.650835
  H 5.879966 -0.566834 -1.518351
  H 0.933622 0.542662 1.499578
  H 0.641378 -0.800454 0.408310
  H 0.587718 0.874916 -0.186380
  H 4.036809 1.404710 1.108545
  H 4.067366 -0.297285 1.642674
  H 2.110365 0.108368 3.049350
  H 2.078502 1.810705 2.512633
  H 1.687374 -0.575381 -1.953343
  H 4.651898 0.208356 -0.110944
  H 5.219428 -2.281747 -3.038000
  H 5.247760 -0.721302 -3.817248
  H 2.766406 -0.667080 -3.848351
  H 2.735386 -2.266849 -3.049603
 25
 176.996854
  C 1.017679 0.156146 0.517369
  C 2.828970 0.081253 -0.036102
  C 3.439170 0.527386 1.333859
  C 2.700282 0.902212 2.619761
  H 3.479997 1.151626 3.341379
  C 2.426009 -0.200527 -1.316701
  C 3.976883 -0.171415 -0.821697
  C 4.843967 -0.671812 -1.753931
  C 4.686695 -1.345641 -3.085098
  C 3.301985 -1.617037 -3.652971
  H 3.415995 -2.124958 -4.607430
  H 5.897521 -0.570609 -1.521535
  H 0.884154 0.483775 1.529910
  H 0.638137 -0.843536 0.388131
  H 0.574101 0.856643 -0.168721
  H 4.041459 1.413112 1.104643
  H 4.094788 -0.296263 1.631567
  H 2.132806 0.080106 3.046843
  H 2.075288 1.785285 2.514888
  H 1.662839 -0.403037 -2.010317
  H 4.702615 0.259312 -0.113798
  H 5.220830 -2.297604 -2.994353
  H 5.254821 -0.751018 -3.806701
  H 2.767617 -0.692563 -3.845277
  H 2.726093 -2.269201 -3.004113
 25
 240.363668
  C 0.795923 -0.110596 -0.736742
  C 3.317748 0.062794 0.110786
  C 3.608261 0.440410 1.462931
  C 2.510690 0.820304 2.510006
  H 3.017444 1.099215 3.429597
  C 3.059693 0.338257 -1.233886
  C 5.380067 -0.193017 -0.676667
  C 5.751613 -0.789471 -1.753861
  C 4.981271 -1.254328 -2.961342
  C 3.507861 -1.038441 -2.917647
  H 3.009787 -1.428902 -3.833576
  H 6.803753 -1.007658 -1.795550
  H 0.535358 -0.062136 0.292199
  H 0.645544 -1.064162 -1.214049
  H 0.344517 0.684241 -1.314656
  H 4.348722 1.285530 1.456305
  H 4.165280 -0.434278 1.886429
  H 1.832857 0.005828 2.739387
  H 1.940961 1.685306 2.206179
  H -3.706780 -1.203164 -0.369076
  H 6.111918 0.193462 0.018985
  H 5.176192 -2.322550 -3.088796
  H 5.388789 -0.760524 -3.804427
  H 3.288203 0.028576 -2.932487
  H 3.071438 -1.586580 -2.077421
 25
 124.814011
  C 1.274107 0.031687 -1.309758
  C 3.251628 0.058668 0.091647
  C 3.700956 0.416859 1.401146
  C 2.508030 0.733048 2.331533
  H 2.901481 1.006448 3.304053
  C 2.768518 0.201738 -1.101631
  C 5.222899 -0.289936 -0.526367
  C 5.595590 -0.839174 -1.628879
  C 4.850309 -1.167424 -2.862989
  C 3.384102 -1.133777 -2.568755
  H 2.704653 -1.180481 -3.418997
  H 6.684417 -1.015730 -1.683345
  H 0.708583 0.172245 -0.397740
  H 1.091023 -0.959173 -1.717370
  H 1.015350 0.768295 -2.055393
  H 4.377891 1.276030 1.377085
  H 4.215074 -0.441926 1.857393
  H 1.872133 -0.150593 2.439143
  H 1.912500 1.563721 1.954330
  H -3.543721 -1.359013 0.583891
  H 5.798332 0.174966 0.227833
  H 5.085318 -2.162213 -3.236170
  H 5.162596 -0.446528 -3.621766
  H 3.234235 0.062871 -2.162131
  H 3.111103 -1.932492 -1.874143
 25
 110.188812
  C 1.275374 0.089373 -1.347768
  C 3.307484 0.021310 0.088540
  C 3.710898 0.449903 1.395220
  C 2.450273 0.679391 2.286250
  H 2.792125 1.113526 3.234505
  C 2.756264 0.146304 -1.080580
  C 5.155966 -0.389815 -0.457013
  C 5.561499 -0.888721 -1.573267
  C 4.885148 -1.157891 -2.862037
  C 3.408687 -1.163399 -2.667371
  H 2.796971 -1.084468 -3.561135
  H 6.651601 -1.048710 -1.585749
  H 0.697296 0.329084 -0.455639
  H 0.986338 -0.899474 -1.710023
  H 1.052545 0.816407 -2.123419
  H 4.254405 1.394917 1.344860
  H 4.300103 -0.317782 1.897965
  H 1.943173 -0.259046 2.492863
  H 1.753580 1.363188 1.810248
  H -3.316132 -1.319110 0.983191
  H 5.742758 0.016761 0.342065
  H 5.173219 -2.126073 -3.284328
  H 5.219603 -0.387787 -3.566784
  H 3.267871 -0.017129 -2.166690
  H 3.060059 -1.972643 -2.031284
