 29
 0.000000
  H 1.460605 0.161803 0.459086
  C 2.539040 0.145711 0.417192
  C 3.299357 0.615392 1.582758
  C 2.452201 1.088476 2.759691
  C 3.330910 1.554709 3.916296
  C 3.101936 -0.324505 -0.752819
  C 4.476186 -0.419633 -0.991097
  C 5.137964 -0.876349 -2.130874
  C 4.612192 -1.393111 -3.421140
  C 3.116731 -1.500450 -3.691097
  C 2.879448 -2.061182 -5.091212
  O 6.453127 -0.878812 -2.137145
  H 3.959353 1.434312 1.271849
  H 3.960623 -0.189654 1.925487
  H 1.810234 0.277205 3.107502
  H 1.809009 1.913657 2.448839
  H 3.966311 0.747464 4.273450
  H 2.714846 1.888696 4.747302
  H 3.965014 2.385149 3.614218
  H 2.419329 -0.635038 -1.524677
  H 5.118061 -0.094159 -0.180546
  H 5.063534 -2.383128 -3.556267
  H 5.064482 -0.770799 -4.202379
  H 2.647932 -0.517632 -3.632119
  H 2.647004 -2.170303 -2.970091
  H 3.315068 -1.415353 -5.849893
  H 1.813344 -2.139438 -5.288064
  H 3.314220 -3.052593 -5.194052
  H 6.862320 -0.549711 -1.313708
 29
 14.555189
  H 1.453516 0.181250 0.508208
  C 2.532586 0.161726 0.457535
  C 3.290600 0.631539 1.622952
  C 2.433308 1.102245 2.794006
  C 3.301129 1.571458 3.957512
  C 3.086212 -0.310555 -0.717499
  C 4.452287 -0.405473 -0.955357
  C 5.153015 -0.908775 -2.211373
  C 4.624480 -1.415733 -3.477290
  C 3.124511 -1.513099 -3.722806
  C 2.862373 -2.072205 -5.119246
  O 6.599625 -0.908788 -2.211600
  H 3.951439 1.451154 1.315555
  H 3.952907 -0.171388 1.968767
  H 1.790958 0.288690 3.135716
  H 1.789528 1.924655 2.477108
  H 3.936364 0.766246 4.319551
  H 2.677804 1.903550 4.783857
  H 3.934836 2.403914 3.660189
  H 2.399414 -0.620473 -1.487600
  H 5.108921 -0.085648 -0.159025
  H 5.072573 -2.407959 -3.618608
  H 5.073673 -0.796176 -4.264454
  H 2.663742 -0.527219 -3.655364
  H 2.662617 -2.179316 -2.993673
  H 3.290334 -1.429155 -5.884505
  H 1.793119 -2.143860 -5.299985
  H 3.289276 -3.066198 -5.228866
  H 6.991008 -0.578836 -1.386101
 29
 45.067012
  H 1.476522 0.194560 0.539605
  C 2.556464 0.171752 0.479791
  C 3.301287 0.641221 1.645573
  C 2.422542 1.105522 2.803206
  C 3.267487 1.580078 3.980973
  C 3.094768 -0.294628 -0.681683
  C 4.438691 -0.381323 -0.898683
  C 5.134887 -0.934124 -2.276126
  C 4.621074 -1.433050 -3.520501
  C 3.118801 -1.522533 -3.746563
  C 2.838268 -2.080453 -5.138236
  O 6.725464 -0.916529 -2.229323
  H 3.965335 1.461811 1.348791
  H 3.967333 -0.154985 1.998725
  H 1.780040 0.287703 3.134446
  H 1.778044 1.923714 2.476796
  H 3.902686 0.778895 4.352171
  H 2.629445 1.907676 4.797812
  H 3.900535 2.416689 3.693681
  H 2.409006 -0.605027 -1.452339
  H 5.136613 -0.077359 -0.142481
  H 5.075702 -2.421034 -3.677404
  H 5.077013 -0.828236 -4.316530
  H 2.662995 -0.535115 -3.675394
  H 2.661606 -2.186530 -3.013112
  H 3.259546 -1.440022 -5.909254
  H 1.766801 -2.146975 -5.306055
  H 3.258148 -3.076685 -5.252742
  H 7.030207 -0.580404 -1.386128
 29
 80.664441
  H 1.485077 0.204505 0.561223
  C 2.560621 0.183191 0.504724
  C 3.293079 0.655666 1.680416
  C 2.394657 1.115044 2.827880
  C 3.219417 1.593363 4.017022
  C 3.115327 -0.289027 -0.672466
  C 4.459984 -0.368937 -0.872807
  C 5.132915 -0.965266 -2.355071
  C 4.635167 -1.454361 -3.571313
  C 3.114393 -1.528844 -3.761722
  C 2.790730 -2.085322 -5.148341
  O 6.889067 -0.941625 -2.291379
  H 3.957971 1.479790 1.392029
  H 3.960183 -0.137628 2.041021
  H 1.752304 0.293060 3.147857
  H 1.750379 1.928929 2.491393
  H 3.853620 0.795591 4.396812
  H 2.568218 1.916812 4.824805
  H 3.851491 2.433673 3.739247
  H 2.441295 -0.600161 -1.444198
  H 5.206154 -0.080197 -0.156495
  H 5.091727 -2.453050 -3.730237
  H 5.092553 -0.843488 -4.376749
  H 2.675288 -0.535447 -3.673746
  H 2.672890 -2.184161 -3.011488
  H 3.197623 -1.450407 -5.931275
  H 1.714153 -2.139486 -5.286753
  H 3.195406 -3.086459 -5.274291
  H 7.131856 -0.591674 -1.413567
 29
 116.869327
  H 1.463684 0.224574 0.609893
  C 2.546050 0.201979 0.550110
  C 3.277456 0.673675 1.724764
  C 2.377085 1.131537 2.869510
  C 3.199792 1.610601 4.061260
  C 3.100085 -0.271877 -0.631818
  C 4.443142 -0.349639 -0.826837
  C 5.119863 -0.987839 -2.412357
  C 4.628866 -1.477095 -3.628246
  C 3.113195 -1.547927 -3.809446
  C 2.784433 -2.102430 -5.189586
  O 7.031253 -0.959002 -2.333478
  H 3.942598 1.497062 1.437809
  H 3.944934 -0.118150 2.085418
  H 1.734806 0.308400 3.187318
  H 1.732789 1.944826 2.531147
  H 3.834090 0.813155 4.442112
  H 2.546868 1.933438 4.868245
  H 3.831879 2.451691 3.784855
  H 2.418854 -0.586128 -1.411525
  H 5.210663 -0.071989 -0.138198
  H 5.083230 -2.468631 -3.788424
  H 5.084284 -0.872670 -4.430084
  H 2.679396 -0.553283 -3.717693
  H 2.676971 -2.201063 -3.055088
  H 3.188501 -1.468433 -5.974728
  H 1.707564 -2.154195 -5.321650
  H 3.186337 -3.104310 -5.316947
  H 7.232500 -0.616707 -1.474223
 29
 105.645787
  H 1.248842 0.371048 0.763977
  C 2.297703 0.239935 0.591307
  C 3.219866 0.624085 1.676599
  C 2.537175 1.186497 2.909200
  C 3.540957 1.557479 3.988938
  C 2.655053 -0.264207 -0.600527
  C 4.044250 -0.487415 -1.004231
  C 4.428451 -0.936833 -2.151789
  C 4.495646 -1.429730 -3.426254
  C 3.022262 -1.649458 -3.940282
  C 3.078636 -2.184442 -5.370323
  O 7.131288 -0.672570 -1.982773
  H 3.941535 1.360802 1.304538
  H 3.827254 -0.242054 1.969894
  H 1.835247 0.451179 3.307771
  H 1.958134 2.071679 2.636443
  H 4.114014 0.689837 4.306597
  H 3.030116 1.958435 4.858651
  H 4.236433 2.313958 3.633339
  H 1.924935 -0.493124 -1.323730
  H 4.817723 -0.241237 -0.268300
  H 5.036461 -2.382806 -3.463971
  H 5.036733 -0.762195 -4.099965
  H 2.486570 -0.698491 -3.915665
  H 2.519409 -2.367148 -3.288435
  H 3.572180 -1.483731 -6.039331
  H 2.058303 -2.327350 -5.724202
  H 3.591337 -3.142129 -5.418720
  H 7.333527 -0.164157 -1.194461
 29
 104.533870
  H 1.170927 0.571152 0.867300
  C 2.206255 0.366836 0.629584
  C 3.198576 0.670012 1.680104
  C 2.594023 1.246274 2.954826
  C 3.657116 1.536337 4.007061
  C 2.470850 -0.138865 -0.590653
  C 3.805268 -0.466729 -1.042971
  C 4.217993 -0.937613 -2.159489
  C 4.475544 -1.483706 -3.402699
  C 3.045054 -1.684484 -4.045528
  C 3.229789 -2.269313 -5.436837
  O 7.069815 -0.751604 -1.861918
  H 3.944739 1.374315 1.290839
  H 3.755743 -0.241051 1.932822
  H 1.863480 0.545376 3.366774
  H 2.058020 2.170132 2.722997
  H 4.188739 0.628802 4.286170
  H 3.201443 1.946619 4.904811
  H 4.383887 2.258416 3.640031
  H 1.673804 -0.325887 -1.292249
  H 4.596963 -0.283395 -0.313919
  H 4.968932 -2.458231 -3.335056
  H 5.072571 -0.822913 -4.037990
  H 2.539219 -0.721578 -4.106943
  H 2.462631 -2.364591 -3.424987
  H 3.808772 -1.605523 -6.074600
  H 2.247454 -2.403870 -5.886101
  H 3.723985 -3.237221 -5.400708
  H 7.513632 -0.238407 -1.182444
