22

C 0.972192 0.138431 0.401689
C 2.450944 0.136374 0.394884
C 3.234676 0.60643 1.564923
C 2.457573 1.100485 2.782555
C 3.407512 1.54525 3.890143
C 3.06233 -0.327563 -0.761239
C 4.441563 -0.41369 -0.976592
C 5.119222 -0.863435 -2.099535
H 4.764322855323203 -1.238634142496594 -3.0366434251982257
H 6.189159953088049 -0.8591741708544103 -2.0888288393086754
H 0.543139 0.503495 1.328001
H 0.600276 -0.873667 0.235329
H 0.587023 0.75858 -0.409595
H 3.892876 1.41687 1.231215
H 3.888171 -0.211744 1.888928
H 1.817317 0.305899 3.170923
H 1.821895 1.944903 2.508658
H 4.041142 0.722594 4.215534
H 2.84224 1.894671 4.751182
H 4.045753 2.360016 3.554053
H 2.402472 -0.644538 -1.550917
H 5.058791 -0.082045 -0.149457
