 29
 0.000000
  C 0.999207 0.141096 0.362987
  C 2.477182 0.157709 0.397739
  C 3.240032 0.620014 1.580646
  C 2.440934 1.092189 2.791896
  C 3.371349 1.532362 3.917781
  C 3.108795 -0.292276 -0.752471
  C 4.480300 -0.392812 -0.989076
  C 5.137361 -0.861474 -2.119297
  C 4.620172 -1.394323 -3.409093
  C 3.125882 -1.503125 -3.680662
  H 2.956879 -1.911284 -4.666645
  O 6.459886 -0.867607 -2.126485
  H 0.540296 0.496274 1.278749
  H 0.637285 -0.873504 0.174822
  H 0.640426 0.762714 -0.458073
  H 3.896915 1.438341 1.264229
  H 3.898078 -0.195385 1.901988
  H 1.802932 0.286994 3.161014
  H 1.801670 1.933699 2.518262
  H 4.007787 0.711793 4.242006
  H 2.791756 1.866470 4.774932
  H 4.006493 2.356468 3.600030
  H 2.446252 -0.605166 -1.542778
  H 5.116440 -0.058272 -0.176506
  H 5.068118 -2.387181 -3.529423
  H 5.072064 -0.779191 -4.195457
  H 2.657227 -0.521847 -3.636368
  H 2.653133 -2.163289 -2.955930
  H 6.850580 -0.526914 -1.300051
 29
 -0.518660
  C 0.963317 0.083632 0.425279
  C 2.437234 0.146581 0.395531
  C 3.222869 0.604778 1.565985
  C 2.447360 1.101892 2.779930
  C 3.405967 1.548812 3.878417
  C 3.055314 -0.298437 -0.775119
  C 4.428097 -0.415146 -0.964176
  C 5.118879 -0.876318 -2.080042
  C 4.629978 -1.372182 -3.397666
  C 3.144260 -1.428432 -3.715747
  H 3.026709 -1.813199 -4.726111
  O 6.436241 -0.913401 -2.040075
  H 0.523997 0.611510 1.263912
  H 0.680077 -0.967438 0.493766
  H 0.537482 0.447899 -0.506723
  H 3.898722 1.400626 1.240055
  H 3.867113 -0.218140 1.890391
  H 1.810407 0.308386 3.172271
  H 1.815342 1.947380 2.503591
  H 4.035405 0.724595 4.205312
  H 2.851815 1.909305 4.740793
  H 4.047310 2.355412 3.531130
  H 2.398865 -0.584567 -1.576801
  H 5.056153 -0.115685 -0.136822
  H 5.061993 -2.372458 -3.518859
  H 5.136009 -0.758714 -4.152198
  H 2.692773 -0.440882 -3.688206
  H 2.617904 -2.103310 -3.047066
  H 6.826188 -0.604352 -1.209811
 29
 0.780522
  C 0.974729 0.050998 0.453762
  C 2.441797 0.115263 0.397582
  C 3.231188 0.619392 1.547119
  C 2.449466 1.111500 2.761865
  C 3.402474 1.604377 3.845622
  C 3.052264 -0.292838 -0.782006
  C 4.423798 -0.488504 -0.945040
  C 5.115326 -0.919195 -2.070572
  C 4.630723 -1.340471 -3.415440
  C 3.150120 -1.323149 -3.756057
  H 3.033539 -1.663144 -4.782513
  O 6.427096 -1.019672 -2.008720
  H 0.511827 0.682023 1.197663
  H 0.848317 -0.989427 0.797044
  H 0.501781 0.105269 -0.518235
  H 3.863304 1.438950 1.187888
  H 3.915422 -0.169523 1.880636
  H 1.839325 0.304669 3.171796
  H 1.790865 1.933675 2.478829
  H 4.056991 0.804860 4.182292
  H 2.844478 1.964821 4.705528
  H 4.018606 2.421694 3.479456
  H 2.400718 -0.476555 -1.617187
  H 5.047648 -0.278095 -0.082774
  H 5.023751 -2.351830 -3.570463
  H 5.172302 -0.716513 -4.135522
  H 2.738116 -0.318724 -3.696463
  H 2.586200 -2.002507 -3.121120
  H 6.816708 -0.746616 -1.158288
 29
 11.802691
  C 0.957396 0.121728 0.450372
  C 2.414571 0.113517 0.399259
  C 3.224885 0.597564 1.550794
  C 2.445266 1.116083 2.756214
  C 3.401967 1.606110 3.836768
  C 3.015709 -0.285167 -0.793240
  C 4.393053 -0.471809 -0.947971
  C 5.092740 -0.922285 -2.058632
  C 4.626287 -1.339751 -3.413616
  C 3.150824 -1.299919 -3.776228
  H 3.043787 -1.641224 -4.803659
  O 6.409439 -1.030206 -1.983368
  H 0.443575 0.652770 1.229465
  H 1.175548 -0.932482 0.813773
  H 0.435995 -0.007414 -0.482927
  H 3.865014 1.405462 1.183148
  H 3.887549 -0.203114 1.893238
  H 1.822039 0.324360 3.176129
  H 1.802262 1.945066 2.459388
  H 4.041204 0.800240 4.185558
  H 2.847881 1.987566 4.689524
  H 4.033504 2.407084 3.462443
  H 2.368839 -0.483131 -1.627573
  H 5.012474 -0.244236 -0.087233
  H 5.005236 -2.357676 -3.560869
  H 5.187513 -0.723137 -4.124291
  H 2.754972 -0.287507 -3.725646
  H 2.567278 -1.968477 -3.147171
  H 6.783221 -0.773069 -1.120325
 29
 28.904953
  C 0.944806 0.165227 0.448319
  C 2.378900 0.084435 0.408053
  C 3.214381 0.566052 1.558926
  C 2.445245 1.116363 2.759935
  C 3.414298 1.611887 3.829201
  C 3.002946 -0.272051 -0.806482
  C 4.373410 -0.469954 -0.947883
  C 5.078932 -0.919184 -2.050617
  C 4.624458 -1.339343 -3.410485
  C 3.150805 -1.298419 -3.781801
  H 3.049069 -1.642580 -4.808590
  O 6.405145 -1.035160 -1.965546
  H 0.417561 0.581016 1.285231
  H 1.492794 -0.936871 0.708751
  H 0.387856 0.000671 -0.460625
  H 3.865664 1.356610 1.179435
  H 3.858914 -0.244042 1.909812
  H 1.813531 0.341247 3.196810
  H 1.812727 1.949374 2.450313
  H 4.044564 0.801935 4.189877
  H 2.869083 2.017081 4.678091
  H 4.056262 2.397878 3.437642
  H 2.362634 -0.424854 -1.655868
  H 4.986440 -0.252013 -0.082091
  H 5.001679 -2.358245 -3.551329
  H 5.191242 -0.725217 -4.118678
  H 2.757709 -0.286969 -3.737072
  H 2.563997 -1.962600 -3.154457
  H 6.768665 -0.766207 -1.103837
 29
 40.335719
  C 0.926349 0.219272 0.446807
  C 2.350223 0.060488 0.425526
  C 3.205286 0.541178 1.579977
  C 2.443416 1.125683 2.769218
  C 3.418254 1.613052 3.836663
  C 2.995284 -0.285105 -0.814888
  C 4.359867 -0.472032 -0.955706
  C 5.068050 -0.915377 -2.060715
  C 4.614487 -1.335043 -3.421245
  C 3.139909 -1.302819 -3.789868
  H 3.038738 -1.645386 -4.817277
  O 6.395896 -1.020626 -1.977510
  H 0.407558 0.615274 1.297565
  H 1.784371 -0.981451 0.643247
  H 0.352051 0.024138 -0.443115
  H 3.875565 1.311975 1.194856
  H 3.826491 -0.279596 1.944345
  H 1.791212 0.371448 3.212701
  H 1.831913 1.968640 2.444299
  H 4.027280 0.793491 4.211736
  H 2.878412 2.043064 4.676793
  H 4.080459 2.378115 3.437501
  H 2.351179 -0.428545 -1.663154
  H 4.972270 -0.252567 -0.089701
  H 4.997854 -2.351258 -3.565131
  H 5.176304 -0.715741 -4.128844
  H 2.740743 -0.293820 -3.742757
  H 2.558138 -1.971928 -3.163186
  H 6.757712 -0.750706 -1.115585
 29
 42.208919
  C 0.920830 0.255530 0.444839
  C 2.331750 0.003744 0.458218
  C 3.200287 0.514626 1.604873
  C 2.440148 1.138711 2.773986
  C 3.414201 1.627429 3.841606
  C 2.993889 -0.336268 -0.807236
  C 4.352628 -0.492446 -0.956288
  C 5.062712 -0.900147 -2.080743
  C 4.599429 -1.308216 -3.438917
  C 3.119703 -1.306546 -3.788138
  H 3.013633 -1.634768 -4.819588
  O 6.385327 -0.961766 -2.015683
  H 0.410628 0.693690 1.278664
  H 2.077986 -1.096149 0.597403
  H 0.338483 0.009409 -0.425055
  H 3.877794 1.270534 1.203032
  H 3.809482 -0.301764 1.995524
  H 1.768243 0.406123 3.224606
  H 1.848200 1.986689 2.426868
  H 4.000496 0.802472 4.240436
  H 2.875100 2.086701 4.666578
  H 4.097810 2.368425 3.433195
  H 2.338201 -0.478359 -1.647683
  H 4.967251 -0.275829 -0.090803
  H 5.006278 -2.311956 -3.603868
  H 5.136536 -0.665356 -4.144598
  H 2.695971 -0.308828 -3.719847
  H 2.562292 -2.000366 -3.166065
  H 6.754758 -0.695883 -1.154330
 29
 44.130305
  C 0.926950 0.258618 0.461816
  C 2.311039 0.014530 0.474665
  C 3.186677 0.510193 1.614113
  C 2.437477 1.159860 2.776470
  C 3.417212 1.615231 3.852800
  C 2.970861 -0.375260 -0.792641
  C 4.343762 -0.499953 -0.951831
  C 5.051526 -0.875433 -2.083703
  C 4.585276 -1.288586 -3.441552
  C 3.102806 -1.322826 -3.779303
  H 2.997634 -1.647822 -4.812099
  O 6.380886 -0.894444 -2.036797
  H 0.428284 0.756562 1.270422
  H 2.355264 -1.156759 0.378522
  H 0.326507 -0.039938 -0.379815
  H 3.884593 1.246478 1.212719
  H 3.772385 -0.317688 2.016922
  H 1.737046 0.448800 3.218582
  H 1.876584 2.026429 2.425125
  H 3.967606 0.769940 4.261077
  H 2.886500 2.097043 4.670047
  H 4.132439 2.328386 3.449721
  H 2.315368 -0.495102 -1.634934
  H 4.957584 -0.278131 -0.085825
  H 5.016234 -2.281980 -3.614067
  H 5.099786 -0.630242 -4.148558
  H 2.654396 -0.336513 -3.703849
  H 2.567214 -2.034622 -3.158466
  H 6.754160 -0.617538 -1.181904
 29
 42.158048
  C 0.932370 0.221074 0.486450
  C 2.295497 0.041366 0.478663
  C 3.176184 0.523293 1.611151
  C 2.440900 1.186534 2.775687
  C 3.433827 1.646576 3.838430
  C 2.949401 -0.416788 -0.775237
  C 4.341259 -0.531932 -0.941839
  C 5.046064 -0.885789 -2.072526
  C 4.581636 -1.268801 -3.439705
  C 3.099272 -1.294964 -3.777227
  H 2.993627 -1.596663 -4.816742
  O 6.375288 -0.914702 -2.024668
  H 0.427470 0.674073 1.316681
  H 2.475366 -1.199785 0.179137
  H 0.320964 -0.073085 -0.347981
  H 3.884914 1.248283 1.203872
  H 3.753532 -0.310817 2.014874
  H 1.741582 0.483134 3.230619
  H 1.880353 2.052379 2.420583
  H 3.985342 0.803090 4.247827
  H 2.912764 2.136965 4.656965
  H 4.147223 2.354768 3.422712
  H 2.295616 -0.508494 -1.625901
  H 4.949893 -0.320975 -0.071343
  H 5.012070 -2.257026 -3.634553
  H 5.096447 -0.593813 -4.131349
  H 2.651588 -0.310067 -3.680007
  H 2.563278 -2.019941 -3.172210
  H 6.748583 -0.651637 -1.165080
 29
 32.171875
  C 0.930459 0.213930 0.496326
  C 2.268489 0.052296 0.500423
  C 3.164375 0.530587 1.604272
  C 2.455983 1.227003 2.766683
  C 3.469825 1.684988 3.810317
  C 2.904983 -0.527688 -0.734748
  C 4.321989 -0.613653 -0.907278
  C 5.037540 -0.895856 -2.049618
  C 4.583007 -1.210548 -3.436192
  C 3.102169 -1.246395 -3.777933
  H 3.003235 -1.497363 -4.831498
  O 6.365282 -0.915153 -1.993960
  H 0.411801 0.676541 1.314283
  H 2.571072 -1.378796 -0.011541
  H 0.321269 -0.096663 -0.334508
  H 3.885173 1.231448 1.174530
  H 3.728739 -0.310064 2.015505
  H 1.748235 0.544517 3.239798
  H 1.907319 2.096746 2.402573
  H 4.011669 0.837828 4.225123
  H 2.967529 2.196054 4.627938
  H 4.189904 2.374855 3.375320
  H 2.255594 -0.567384 -1.594953
  H 4.918941 -0.438624 -0.021167
  H 5.032922 -2.177809 -3.685027
  H 5.086320 -0.489000 -4.088408
  H 2.636113 -0.276144 -3.632621
  H 2.578570 -2.010230 -3.211214
  H 6.733815 -0.697497 -1.119282
 29
 22.059091
  C 0.931422 0.212496 0.491024
  C 2.261312 0.051802 0.505561
  C 3.169185 0.531231 1.587191
  C 2.487278 1.271018 2.737839
  C 3.516759 1.719954 3.769972
  C 2.856590 -0.669055 -0.681867
  C 4.293260 -0.709673 -0.856198
  C 5.023219 -0.896596 -2.010505
  C 4.581287 -1.129320 -3.415458
  C 3.104278 -1.196089 -3.766690
  H 3.017340 -1.393588 -4.832572
  O 6.347892 -0.889675 -1.945196
  H 0.403834 0.721093 1.276782
  H 2.541824 -1.620395 -0.192666
  H 0.325900 -0.140122 -0.325896
  H 3.909779 1.197662 1.134273
  H 3.711369 -0.318521 2.011688
  H 1.760265 0.618981 3.224481
  H 1.961692 2.148014 2.356806
  H 4.035986 0.865565 4.198668
  H 3.031545 2.259497 4.579713
  H 4.253929 2.381699 3.320386
  H 2.252855 -0.586444 -1.576094
  H 4.877932 -0.582747 0.045928
  H 5.065803 -2.061751 -3.726608
  H 5.062633 -0.351346 -4.017902
  H 2.604212 -0.250999 -3.574167
  H 2.603618 -2.004573 -3.243030
  H 6.710123 -0.732236 -1.054448
 29
 18.783742
  C 0.913688 0.147523 0.544029
  C 2.251714 0.057388 0.501843
  C 3.162893 0.527682 1.584000
  C 2.493125 1.268514 2.740165
  C 3.534697 1.746684 3.746899
  C 2.833182 -0.634235 -0.698599
  C 4.281982 -0.695013 -0.843491
  C 5.023535 -0.906912 -1.985640
  C 4.590270 -1.146745 -3.391678
  C 3.116407 -1.175431 -3.759109
  H 3.035315 -1.392699 -4.821552
  O 6.346746 -0.924688 -1.904718
  H 0.386427 0.609323 1.357874
  H 2.465950 -1.656286 -0.485657
  H 0.300677 -0.216112 -0.262976
  H 3.911320 1.188694 1.135063
  H 3.696397 -0.333096 1.998672
  H 1.787413 0.610189 3.249196
  H 1.943464 2.131187 2.359938
  H 4.074218 0.905565 4.176819
  H 3.056700 2.289719 4.558612
  H 4.253503 2.413130 3.275027
  H 2.308372 -0.351728 -1.608781
  H 4.854705 -0.575869 0.066693
  H 5.048868 -2.099200 -3.682033
  H 5.104155 -0.396907 -4.002960
  H 2.642680 -0.211331 -3.594228
  H 2.582561 -1.953652 -3.223286
  H 6.702159 -0.779809 -1.009107
 29
 17.691296
  C 0.921825 0.259147 0.503262
  C 2.261299 0.169106 0.458247
  C 3.159961 0.570840 1.579207
  C 2.477630 1.190832 2.796827
  C 3.512566 1.627439 3.829141
  C 2.855550 -0.431671 -0.777777
  C 4.310041 -0.505203 -0.901527
  C 5.040409 -0.864722 -2.013370
  C 4.582570 -1.285788 -3.367937
  C 3.102091 -1.367265 -3.696621
  H 2.999998 -1.726620 -4.717730
  O 6.364549 -0.867365 -1.950909
  H 0.399724 0.624379 1.367930
  H 2.444724 -1.455279 -0.797513
  H 0.303553 -0.027994 -0.329808
  H 3.887878 1.291116 1.191835
  H 3.718975 -0.309397 1.912034
  H 1.803975 0.466788 3.258229
  H 1.890674 2.059376 2.493548
  H 4.102510 0.779280 4.169978
  H 3.023546 2.066062 4.695565
  H 4.187362 2.371772 3.411899
  H 2.404192 0.028935 -1.661996
  H 4.888878 -0.267132 -0.019991
  H 5.042676 -2.265144 -3.544479
  H 5.079374 -0.619781 -4.082087
  H 2.623864 -0.392881 -3.650850
  H 2.580931 -2.063548 -3.047969
  H 6.731797 -0.609395 -1.086123
