 20
 0.000000
  C 0.993291 0.155352 0.437591
  C 2.456031 0.124498 0.360537
  H 3.040074 0.463108 1.203354
  C 3.056842 -0.337754 -0.790502
  C 4.436401 -0.417688 -0.990363
  C 5.128300 -0.869263 -2.115859
  C 4.635258 -1.391187 -3.416682
  C 3.148472 -1.509188 -3.711261
  H 3.021463 -1.910872 -4.712445
  O 6.443031 -0.859963 -2.093013
  H 0.629507 0.536605 1.386988
  H 0.588093 -0.846384 0.281819
  H 0.587885 0.771090 -0.367695
  H 2.397411 -0.655396 -1.580841
  H 5.053299 -0.084788 -0.161587
  H 5.101494 -2.375607 -3.539811
  H 5.101843 -0.765217 -4.186173
  H 2.661927 -0.538214 -3.679265
  H 2.661730 -2.188683 -3.017086
  H 6.834289 -0.527662 -1.262610
 20
 -0.432711
  C 0.996320 0.209176 0.520951
  C 2.442110 0.123296 0.310025
  H 3.095371 0.490399 1.092031
  C 2.993164 -0.407151 -0.833068
  C 4.377366 -0.486131 -1.001369
  C 5.120403 -0.881667 -2.114293
  C 4.667723 -1.379730 -3.442056
  C 3.187835 -1.523942 -3.757107
  H 3.089823 -1.899164 -4.774083
  O 6.430650 -0.829700 -2.052885
  H 0.743410 0.631968 1.486652
  H 0.538706 -0.780098 0.421868
  H 0.533410 0.808130 -0.268723
  H 2.327444 -0.752254 -1.603171
  H 4.964514 -0.155510 -0.150772
  H 5.164112 -2.346824 -3.584494
  H 5.134575 -0.723862 -4.186754
  H 2.675428 -0.566656 -3.711798
  H 2.706634 -2.241087 -3.096850
  H 6.797991 -0.514740 -1.204775
 20
 0.985652
  C 1.007920 0.217170 0.541072
  C 2.446204 0.176945 0.269488
  H 3.071367 0.604195 1.041000
  C 2.980235 -0.433552 -0.838486
  C 4.363811 -0.522879 -0.982832
  C 5.115576 -0.900158 -2.098584
  C 4.676579 -1.378849 -3.433457
  C 3.196396 -1.497326 -3.772337
  H 3.114877 -1.837015 -4.806940
  O 6.427035 -0.848871 -2.030877
  H 0.770847 0.707352 1.485098
  H 0.600337 -0.797106 0.529548
  H 0.481764 0.718469 -0.277149
  H 2.311099 -0.821084 -1.588606
  H 4.983157 -0.207068 -0.150263
  H 5.156289 -2.345045 -3.600890
  H 5.145001 -0.710377 -4.169711
  H 2.695563 -0.542980 -3.714201
  H 2.699837 -2.240099 -3.156189
  H 6.795272 -0.559463 -1.176813
 20
 5.982378
  C 1.019644 0.235714 0.561527
  C 2.473936 0.169499 0.261156
  H 3.032192 0.593600 1.075698
  C 2.960258 -0.455349 -0.850450
  C 4.350404 -0.520042 -0.968454
  C 5.105224 -0.891954 -2.100674
  C 4.675117 -1.375812 -3.441127
  C 3.213348 -1.508191 -3.797191
  H 3.138942 -1.845088 -4.823991
  O 6.411817 -0.845873 -2.008079
  H 0.811783 0.729009 1.501871
  H 0.594835 -0.766111 0.533176
  H 0.490119 0.750117 -0.241310
  H 2.300332 -0.828225 -1.597130
  H 5.023422 -0.239740 -0.171911
  H 5.170928 -2.337107 -3.603828
  H 5.151905 -0.705473 -4.171500
  H 2.706222 -0.545271 -3.748419
  H 2.716819 -2.248443 -3.178509
  H 6.777374 -0.575382 -1.142243
 20
 9.256284
  C 1.025121 0.246900 0.559253
  C 2.470887 0.211079 0.213624
  H 3.016287 0.702623 0.991302
  C 2.950397 -0.499919 -0.853687
  C 4.334956 -0.545947 -0.976708
  C 5.110580 -0.925898 -2.093391
  C 4.722489 -1.391493 -3.455818
  C 3.238046 -1.461221 -3.814912
  H 3.148485 -1.780530 -4.855711
  O 6.417995 -0.882438 -1.985879
  H 0.841649 0.810913 1.462331
  H 0.643693 -0.777664 0.686054
  H 0.432724 0.666412 -0.256948
  H 2.270809 -0.922090 -1.554304
  H 5.023907 -0.267169 -0.188423
  H 5.142418 -2.379730 -3.583027
  H 5.186635 -0.672876 -4.144041
  H 2.761722 -0.485708 -3.722293
  H 2.721630 -2.199314 -3.206522
  H 6.777137 -0.647639 -1.110082
 20
 10.984256
  C 1.020659 0.244925 0.445914
  C 2.484390 0.285409 0.171637
  H 2.968396 0.868005 0.946022
  C 3.007140 -0.549454 -0.790928
  C 4.408299 -0.571369 -0.930094
  C 5.143673 -0.973571 -2.070203
  C 4.682730 -1.373680 -3.416791
  C 3.208125 -1.386177 -3.725386
  H 3.112489 -1.620509 -4.818082
  O 6.462737 -0.982206 -2.007981
  H 0.750349 0.823454 1.337024
  H 0.748176 -0.791078 0.625436
  H 0.429510 0.575874 -0.401766
  H 2.337630 -1.036005 -1.472029
  H 5.081766 -0.332736 -0.129100
  H 5.100496 -2.346256 -3.632950
  H 5.133866 -0.641226 -4.071239
  H 2.755211 -0.401454 -3.592908
  H 2.673973 -2.192379 -3.193352
  H 6.857874 -0.788012 -1.142197
 20
 15.952255
  C 1.061661 0.309186 0.467192
  C 2.514136 0.218068 0.140333
  H 2.981281 0.840577 0.876583
  C 2.976343 -0.667542 -0.794472
  C 4.374050 -0.625479 -0.903293
  C 5.127177 -0.966673 -2.039028
  C 4.703942 -1.344735 -3.398812
  C 3.221138 -1.383517 -3.768840
  H 3.162333 -1.639823 -4.829200
  O 6.443341 -0.972128 -1.953873
  H 0.866116 0.905273 1.359938
  H 0.715121 -0.718389 0.591684
  H 0.491960 0.697652 -0.374218
  H 2.310879 -1.193614 -1.453637
  H 5.022003 -0.387412 -0.077333
  H 5.124145 -2.310449 -3.665902
  H 5.157697 -0.597318 -4.054969
  H 2.731299 -0.416506 -3.651301
  H 2.700333 -2.167521 -3.245634
  H 6.816167 -0.731630 -1.086026
 20
 26.190350
  C 1.066365 0.332657 0.334514
  C 2.567574 0.133772 0.096337
  H 2.952422 0.779431 0.862560
  C 2.974329 -0.821367 -0.782162
  C 4.387663 -0.701861 -0.786631
  C 5.118419 -0.982010 -1.966529
  C 4.685411 -1.269219 -3.357780
  C 3.207794 -1.314009 -3.756776
  H 3.164932 -1.479790 -4.835020
  O 6.435620 -0.986426 -1.895160
  H 0.901503 0.992707 1.184152
  H 0.643894 -0.657591 0.502843
  H 0.607492 0.778797 -0.551520
  H 2.382222 -1.356963 -1.486670
  H 4.999576 -0.548588 0.082086
  H 5.139170 -2.215030 -3.664898
  H 5.178114 -0.488245 -3.946497
  H 2.705447 -0.366929 -3.572314
  H 2.678533 -2.137867 -3.296507
  H 6.824239 -0.776470 -1.023484
 20
 31.802296
  C 1.085653 0.394584 0.282231
  C 2.556513 0.084861 0.045007
  H 2.958589 0.761864 0.776157
  C 2.972292 -0.943041 -0.738785
  C 4.380747 -0.763222 -0.780575
  C 5.124631 -0.985432 -1.963763
  C 4.684791 -1.213506 -3.356117
  C 3.215145 -1.248719 -3.725391
  H 3.177018 -1.380584 -4.809193
  O 6.450357 -0.988915 -1.879544
  H 0.965586 1.086096 1.099428
  H 0.621525 -0.565234 0.514138
  H 0.618694 0.809612 -0.618538
  H 2.374479 -1.512712 -1.408501
  H 4.963390 -0.700769 0.111541
  H 5.160353 -2.135010 -3.698011
  H 5.174063 -0.399148 -3.914135
  H 2.688678 -0.324681 -3.503607
  H 2.701963 -2.121424 -3.326062
  H 6.826777 -0.810439 -1.014112
