 17
 0.000000
  C 0.974105 0.134780 0.386143
  C 2.429761 0.084503 0.264082
  H 3.027629 0.420909 1.101864
  C 3.067366 -0.370038 -0.866750
  C 4.459962 -0.410310 -0.969172
  C 5.191718 -0.852900 -2.074708
  C 4.609761 -1.357195 -3.331528
  H 3.527942 -1.357769 -3.332420
  O 6.498060 -0.843460 -2.054591
  H 0.653061 0.521385 1.347703
  H 0.546823 -0.859341 0.232870
  H 0.548605 0.747665 -0.412426
  H 2.459039 -0.703397 -1.696059
  H 5.027808 -0.066203 -0.113150
  H 4.980617 -2.365462 -3.515906
  H 4.980407 -0.755916 -4.161720
  H 6.897092 -0.511960 -1.226955
 17
 2.276501
  C 0.970180 0.086892 0.399513
  C 2.421380 0.159201 0.230644
  H 2.998732 0.687639 0.975349
  C 3.076924 -0.410340 -0.835461
  C 4.465384 -0.348645 -0.974906
  C 5.196335 -0.830731 -2.063340
  C 4.606458 -1.235374 -3.352138
  H 3.545510 -1.019785 -3.425011
  O 6.506920 -0.845968 -2.037991
  H 0.633099 0.580273 1.306115
  H 0.640661 -0.955181 0.404294
  H 0.466930 0.530788 -0.463805
  H 2.493498 -0.942867 -1.568904
  H 5.021745 0.163148 -0.198727
  H 4.779850 -2.303513 -3.497981
  H 5.142839 -0.739862 -4.160787
  H 6.903250 -0.947078 -1.152539
 17
 8.899268
  C 0.946379 0.116084 0.395066
  C 2.398531 0.152664 0.250087
  H 2.983484 0.612370 1.035477
  C 3.051866 -0.370830 -0.841012
  C 4.443492 -0.326050 -0.961760
  C 5.189714 -0.779737 -2.047391
  C 4.627983 -1.289031 -3.307618
  H 3.546697 -1.310030 -3.322543
  O 6.510370 -0.635157 -2.033296
  H 0.611491 0.540384 1.335017
  H 0.579272 -0.908541 0.299197
  H 0.474042 0.651031 -0.433422
  H 2.460423 -0.831720 -1.618786
  H 4.999240 0.143393 -0.160553
  H 5.026563 -2.287402 -3.494034
  H 4.994730 -0.678956 -4.135639
  H 7.015293 -1.154641 -1.387780
 17
 10.653965
  C 0.919684 0.115302 0.386707
  C 2.374224 0.116606 0.274620
  H 2.957011 0.464175 1.117207
  C 3.035382 -0.302900 -0.856866
  C 4.429568 -0.280533 -0.949078
  C 5.192639 -0.726753 -2.026506
  C 4.659204 -1.372403 -3.236124
  H 3.585804 -1.505131 -3.212806
  O 6.501827 -0.496440 -1.973746
  H 0.577544 0.423385 1.368420
  H 0.517847 -0.871094 0.143342
  H 0.487232 0.776342 -0.369913
  H 2.447408 -0.650511 -1.694155
  H 4.987410 0.099809 -0.101977
  H 5.142123 -2.337376 -3.395075
  H 4.935982 -0.767078 -4.102436
  H 7.111351 -1.224451 -1.780379
 17
 3.496712
  C 0.895005 0.116925 0.370411
  C 2.354551 0.096570 0.289149
  H 2.922931 0.393398 1.160217
  C 3.034486 -0.279122 -0.846432
  C 4.429179 -0.272803 -0.911176
  C 5.209801 -0.715331 -1.981974
  C 4.695032 -1.409105 -3.176007
  H 3.622087 -1.547168 -3.149273
  O 6.494604 -0.461769 -1.889078
  H 0.539330 0.324479 1.373759
  H 0.472718 -0.821983 0.008053
  H 0.500248 0.879118 -0.307964
  H 2.459514 -0.573945 -1.712823
  H 4.983513 0.078313 -0.048591
  H 5.170593 -2.383655 -3.289775
  H 4.965676 -0.833048 -4.062751
  H 7.118196 -1.128234 -2.230316
 17
 0.389527
  C 0.889335 0.080130 0.364048
  C 2.349966 0.056664 0.287633
  H 2.910790 0.253775 1.191418
  C 3.037792 -0.207804 -0.871087
  C 4.433413 -0.209816 -0.922851
  C 5.221943 -0.700800 -1.969014
  C 4.712854 -1.475663 -3.114453
  H 3.630178 -1.500291 -3.147603
  O 6.504059 -0.468555 -1.858791
  H 0.531392 -0.003761 1.385967
  H 0.439567 -0.685784 -0.266211
  H 0.531722 1.036670 -0.033119
  H 2.469994 -0.410721 -1.768122
  H 4.982274 0.206940 -0.090935
  H 5.073433 -2.505734 -3.052946
  H 5.096339 -1.061648 -4.049002
  H 7.081234 -0.939888 -2.486811
 17
 6.606383
  C 0.883250 0.021204 0.320453
  C 2.341741 -0.090095 0.265889
  H 2.878246 -0.265717 1.189321
  C 3.052529 -0.023451 -0.901409
  C 4.453026 -0.120993 -0.942070
  C 5.224037 -0.653880 -1.974111
  C 4.693540 -1.475371 -3.075901
  H 3.615776 -1.568830 -3.019784
  O 6.509604 -0.410113 -1.881667
  H 0.491292 -0.206747 1.303720
  H 0.409864 -0.621777 -0.423215
  H 0.589862 1.036572 0.046070
  H 2.517027 0.122989 -1.830929
  H 5.069226 0.299856 -0.155847
  H 5.131819 -2.474885 -3.065205
  H 4.974427 -1.023639 -4.027824
  H 7.116504 -1.085470 -2.239438
 17
 21.597163
  C 0.889548 0.062533 0.446847
  C 2.326290 -0.146193 0.246703
  H 2.909601 -0.509415 1.073216
  C 2.961879 0.088866 -0.952847
  C 4.368513 -0.050880 -1.121994
  C 5.151644 -0.649109 -2.089760
  C 4.770085 -1.688807 -3.085605
  H 3.715565 -1.911966 -3.028477
  O 6.411719 -0.233669 -2.003435
  H 0.562844 -0.304474 1.401808
  H 0.315558 -0.417936 -0.330192
  H 0.676612 1.141828 0.356852
  H 2.383346 0.439304 -1.774194
  H 5.134156 0.491183 -0.544415
  H 5.345692 -2.613352 -2.930443
  H 5.014644 -1.339181 -4.092483
  H 7.091970 -0.905324 -1.999035
 17
 48.543519
  C 0.900006 0.115459 0.567686
  C 2.288100 -0.238399 0.221231
  H 2.855525 -0.787837 0.927081
  C 2.860572 0.124987 -0.949757
  C 4.217680 -0.125948 -1.281086
  C 5.074715 -0.706054 -2.166131
  C 4.927388 -1.774061 -3.157135
  H 3.890921 -2.109730 -3.204270
  O 6.281658 -0.138289 -1.972062
  H 0.584380 -0.333551 1.502658
  H 0.206818 -0.179660 -0.220536
  H 0.807427 1.198467 0.641234
  H 2.258975 0.696864 -1.667155
  H 5.155939 0.475778 -0.877406
  H 5.576578 -2.634457 -2.924103
  H 5.214315 -1.391985 -4.115512
  H 7.025152 -0.746693 -1.774205
 17
 64.937132
  C 0.905324 0.133853 0.608046
  C 2.258598 -0.264023 0.192924
  H 2.823171 -0.915679 0.844100
  C 2.815909 0.144954 -0.989275
  C 4.088191 -0.188836 -1.401821
  C 4.978260 -0.750093 -2.185420
  C 4.982820 -1.856181 -3.161170
  H 3.987144 -2.276968 -3.255262
  O 6.204628 -0.039534 -1.926823
  H 0.588709 -0.382374 1.508177
  H 0.183425 -0.046790 -0.189734
  H 0.876018 1.210224 0.792952
  H 2.270290 0.850200 -1.608366
  H 5.345293 0.524602 -1.102247
  H 5.670434 -2.642221 -2.853181
  H 5.303650 -1.482238 -4.132916
  H 6.958835 -0.588226 -1.627630
 17
 58.413322
  C 0.889035 0.167606 0.635990
  C 2.201941 -0.306020 0.179319
  H 2.730706 -0.975983 0.797051
  C 2.748163 0.106081 -0.991166
  C 4.009722 -0.245882 -1.428886
  C 4.938083 -0.767573 -2.188231
  C 5.016543 -1.870014 -3.177202
  H 4.068880 -2.361037 -3.317515
  O 6.143858 -0.006026 -1.902724
  H 0.583802 -0.326042 1.544039
  H 0.128057 0.025003 -0.144854
  H 0.920781 1.235298 0.821142
  H 2.201347 0.844098 -1.577178
  H 5.527863 0.501114 -1.167895
  H 5.756804 -2.614437 -2.865356
  H 5.327309 -1.442348 -4.131758
  H 6.927470 -0.552310 -1.618412
 17
 46.163751
  C 0.853622 0.160166 0.633559
  C 2.176243 -0.317904 0.170474
  H 2.717793 -1.014712 0.796501
  C 2.743832 0.119488 -1.005690
  C 3.951705 -0.260803 -1.472033
  C 4.917360 -0.747110 -2.165576
  C 5.027227 -1.849860 -3.137887
  H 4.063321 -2.329020 -3.268830
  O 6.230406 -0.017183 -1.935199
  H 0.540684 -0.344051 1.545409
  H 0.094092 0.009084 -0.135950
  H 0.883095 1.235776 0.821813
  H 2.211135 0.868350 -1.584682
  H 5.887963 0.553506 -1.209831
  H 5.751737 -2.594715 -2.813294
  H 5.346481 -1.447478 -4.094874
  H 6.966266 -0.615988 -1.694119
 17
 41.808066
  C 0.846272 0.171686 0.635513
  C 2.159041 -0.312511 0.150870
  H 2.668135 -1.071733 0.720567
  C 2.723618 0.147199 -1.019014
  C 3.899121 -0.269393 -1.528814
  C 4.918856 -0.745754 -2.150380
  C 5.055987 -1.861989 -3.120642
  H 4.084754 -2.296456 -3.321774
  O 6.230280 -0.050006 -1.946405
  H 0.521881 -0.371877 1.514643
  H 0.085649 0.078084 -0.140769
  H 0.898150 1.232666 0.886656
  H 2.195267 0.910222 -1.577052
  H 6.070775 0.617643 -1.239727
  H 5.708783 -2.640173 -2.732240
  H 5.473715 -1.485522 -4.053709
  H 6.953363 -0.681952 -1.718320
 17
 41.477694
  C 0.819004 0.161153 0.613296
  C 2.142967 -0.302643 0.144149
  H 2.675672 -1.024975 0.742893
  C 2.702380 0.145645 -1.032759
  C 3.909589 -0.224012 -1.503639
  C 4.933295 -0.694013 -2.124764
  C 5.041562 -1.810310 -3.104253
  H 4.056569 -2.217912 -3.305928
  O 6.266171 -0.070692 -1.900363
  H 0.537301 -0.317964 1.545877
  H 0.049953 -0.045156 -0.133402
  H 0.820244 1.242748 0.762399
  H 2.160358 0.886145 -1.610549
  H 6.269929 0.447594 -1.064477
  H 5.668665 -2.611042 -2.717658
  H 5.461249 -1.443170 -4.038903
  H 6.978739 -0.751264 -1.912516
 17
 41.875359
  C 0.797118 0.157141 0.594651
  C 2.133000 -0.287648 0.142163
  H 2.667263 -1.000806 0.746402
  C 2.697265 0.162350 -1.031815
  C 3.915716 -0.188964 -1.488033
  C 4.940270 -0.668929 -2.100460
  C 5.036467 -1.800363 -3.064449
  H 4.043541 -2.190190 -3.270351
  O 6.276552 -0.053360 -1.876969
  H 0.530151 -0.291130 1.546593
  H 0.034335 -0.105275 -0.139758
  H 0.765511 1.242797 0.696165
  H 2.151940 0.894272 -1.616282
  H 6.407595 0.234315 -0.947399
  H 5.638953 -2.608573 -2.656250
  H 5.469574 -1.458754 -4.003395
  H 6.988396 -0.666749 -2.171409
