 19
 0.000000
  C -3.240471 -1.752545 -0.563490
  C -1.760478 -1.530071 -0.657674
  C -1.232198 -1.576246 -2.076444
  C -1.185767 -0.187659 -0.059772
  C -2.201622 0.808072 0.377698
  O -0.014909 -0.017906 -0.007622
  H -3.455328 -2.755687 -0.935111
  H -3.807066 -1.070117 -1.191862
  H -3.598862 -1.718275 0.460917
  H -1.240700 -2.267690 -0.030177
  H -1.672548 -0.805438 -2.707954
  H -1.508989 -2.534039 -2.515526
  H -0.151488 -1.466292 -2.098225
  H -3.224190 0.464798 0.310316
  H -2.055464 1.693108 -0.243820
  H -1.954169 1.083221 1.403608
  O 2.735918 -0.045506 -0.016313
  H 3.433248 0.443227 -0.472312
  H 3.167710 -0.738697 0.499747
 19
 -0.116119
  C -3.217230 -1.754589 -0.617935
  C -1.742836 -1.489869 -0.620859
  C -1.107854 -1.548189 -1.990887
  C -1.241908 -0.102057 -0.024670
  C -2.313879 0.817535 0.433824
  O -0.081532 0.132229 -0.012173
  H -3.373957 -2.775157 -0.977276
  H -3.758130 -1.106687 -1.305968
  H -3.648862 -1.713901 0.379574
  H -1.237911 -2.164672 0.085680
  H -1.399186 -0.705331 -2.619550
  H -1.451220 -2.443780 -2.508416
  H -0.023058 -1.543654 -1.912798
  H -3.309367 0.397458 0.418200
  H -2.265800 1.694951 -0.214132
  H -2.045785 1.146596 1.438444
  O 2.669713 -0.215620 -0.191212
  H 3.328840 0.263110 -0.702673
  H 3.140541 -0.837018 0.373505
 19
 0.645415
  C -3.189122 -1.734540 -0.661060
  C -1.714981 -1.475010 -0.594777
  C -1.010880 -1.580709 -1.929900
  C -1.235828 -0.076258 -0.012912
  C -2.315999 0.811895 0.489014
  O -0.084219 0.195756 -0.042029
  H -3.332465 -2.756363 -1.020086
  H -3.689487 -1.089968 -1.380811
  H -3.672023 -1.682985 0.310254
  H -1.253449 -2.128496 0.160162
  H -1.112339 -0.670063 -2.520883
  H -1.444999 -2.385724 -2.517809
  H 0.057054 -1.732171 -1.783998
  H -3.300054 0.365836 0.501995
  H -2.312935 1.696196 -0.151266
  H -2.023665 1.137724 1.488325
  O 2.512038 -0.241304 -0.290875
  H 3.152762 0.226806 -0.834667
  H 3.004216 -0.851176 0.268107
 19
 0.759645
  C -3.138131 -1.727643 -0.706036
  C -1.678617 -1.417123 -0.570894
  C -0.895754 -1.570436 -1.856690
  C -1.273478 0.010840 -0.011461
  C -2.385629 0.820919 0.549969
  O -0.146320 0.364833 -0.092734
  H -3.230599 -2.753738 -1.068779
  H -3.621017 -1.102012 -1.454415
  H -3.673699 -1.685596 0.237106
  H -1.244290 -2.016849 0.244056
  H -0.859098 -0.643778 -2.429796
  H -1.349376 -2.323431 -2.494430
  H 0.144233 -1.809117 -1.635164
  H -3.335190 0.308587 0.606308
  H -2.475519 1.707253 -0.080740
  H -2.067539 1.159025 1.537211
  O 2.379359 -0.399109 -0.439861
  H 3.001388 0.082483 -0.992725
  H 2.897563 -0.958442 0.147540
 19
 0.153574
  C -3.082835 -1.703329 -0.764351
  C -1.640955 -1.337817 -0.569003
  C -0.790257 -1.550977 -1.802086
  C -1.321829 0.120951 -0.041371
  C -2.454800 0.835976 0.603332
  O -0.233036 0.568275 -0.187496
  H -3.125720 -2.730772 -1.131498
  H -3.552351 -1.093826 -1.534809
  H -3.664227 -1.674383 0.151361
  H -1.236289 -1.874988 0.304101
  H -0.648632 -0.638736 -2.381950
  H -1.245829 -2.282414 -2.463043
  H 0.220083 -1.847617 -1.513302
  H -3.356429 0.249482 0.711471
  H -2.656641 1.721616 -0.002012
  H -2.100501 1.183522 1.575213
  O 2.213490 -0.584587 -0.608578
  H 2.825599 -0.046532 -1.119796
  H 2.741898 -1.079908 0.026006
 19
 1.616798
  C -3.101040 -1.653970 -0.821739
  C -1.652961 -1.367985 -0.551756
  C -0.761818 -1.679060 -1.736112
  C -1.307407 0.097700 -0.041366
  C -2.406810 0.797399 0.673727
  O -0.237117 0.560527 -0.250831
  H -3.180608 -2.690660 -1.157229
  H -3.482487 -1.048054 -1.642542
  H -3.740302 -1.557781 0.049110
  H -1.327204 -1.898841 0.356874
  H -0.397524 -0.784060 -2.236030
  H -1.288978 -2.275999 -2.472877
  H 0.141772 -2.188817 -1.401761
  H -3.300241 0.208890 0.822165
  H -2.640430 1.694916 0.099479
  H -2.000679 1.123969 1.632567
  O 2.204674 -0.451583 -0.631914
  H 2.776904 0.108389 -1.165139
  H 2.775206 -0.930261 -0.021557
 19
 1.991930
  C -3.111181 -1.584270 -0.913049
  C -1.673061 -1.376874 -0.536141
  C -0.721150 -1.790102 -1.638999
  C -1.322156 0.104091 -0.055472
  C -2.383579 0.764076 0.746420
  O -0.287563 0.597609 -0.350942
  H -3.228160 -2.626037 -1.222342
  H -3.384001 -0.987071 -1.782564
  H -3.814818 -1.412442 -0.106352
  H -1.447008 -1.888245 0.412026
  H -0.189769 -0.942635 -2.065633
  H -1.246452 -2.290744 -2.445371
  H 0.059095 -2.435656 -1.238017
  H -3.243942 0.146298 0.959672
  H -2.687600 1.660182 0.204324
  H -1.915428 1.091617 1.676575
  O 2.193577 -0.367766 -0.724163
  H 2.717884 0.222023 -1.274164
  H 2.803457 -0.799303 -0.116907
 19
 2.393944
  C -3.109448 -1.531072 -1.012191
  C -1.706815 -1.405174 -0.490396
  C -0.678339 -1.887333 -1.497134
  C -1.349490 0.085482 -0.050855
  C -2.366612 0.735715 0.809912
  O -0.355251 0.592758 -0.444886
  H -3.272197 -2.576357 -1.288276
  H -3.246570 -0.952003 -1.924870
  H -3.875718 -1.268153 -0.290251
  H -1.605318 -1.924203 0.472440
  H -0.044650 -1.052764 -1.794817
  H -1.139846 -2.287412 -2.392536
  H -0.014124 -2.618410 -1.041969
  H -3.202993 0.101128 1.070650
  H -2.712606 1.628860 0.288819
  H -1.853724 1.067160 1.714750
  O 2.197770 -0.261359 -0.838471
  H 2.668594 0.303093 -1.459322
  H 2.856393 -0.655979 -0.257801
 19
 7.359446
  C -3.084788 -1.606391 -1.021814
  C -1.719464 -1.397638 -0.416925
  C -0.610224 -1.835247 -1.413646
  C -1.408328 0.052054 -0.062613
  C -2.360691 0.789188 0.808219
  O -0.424909 0.555511 -0.533941
  H -3.201788 -2.662948 -1.273974
  H -3.203924 -1.023927 -1.932077
  H -3.887449 -1.371415 -0.324791
  H -1.650659 -1.964675 0.518495
  H -0.052896 -0.887642 -1.580322
  H -0.979278 -2.172623 -2.374147
  H 0.079778 -2.544717 -0.972677
  H -3.191183 0.168121 1.123245
  H -2.714075 1.660390 0.256356
  H -1.821055 1.170737 1.675202
  O 2.128622 -0.335480 -0.914718
  H 2.592057 0.178067 -1.585047
  H 2.800463 -0.704640 -0.331165
 19
 12.211953
  C -3.089831 -1.671776 -1.013515
  C -1.717426 -1.431586 -0.394989
  C -0.567490 -1.799205 -1.344790
  C -1.460463 0.005521 -0.058123
  C -2.344767 0.812051 0.793578
  O -0.462303 0.490882 -0.595267
  H -3.190585 -2.722089 -1.273908
  H -3.222116 -1.074054 -1.911179
  H -3.882585 -1.428103 -0.311150
  H -1.646153 -2.017989 0.529867
  H -0.094365 -0.676527 -1.393779
  H -0.836798 -2.065199 -2.358463
  H 0.247425 -2.370358 -0.920047
  H -3.181248 0.233404 1.170626
  H -2.699777 1.669061 0.220038
  H -1.778883 1.235374 1.624267
  O 2.078976 -0.438195 -0.962470
  H 2.540616 0.044481 -1.654862
  H 2.756376 -0.783143 -0.372685
 19
 15.102852
  C -3.101920 -1.692669 -1.012861
  C -1.717107 -1.461291 -0.398893
  C -0.581091 -1.828142 -1.319885
  C -1.475533 -0.019409 -0.063696
  C -2.347080 0.788788 0.777080
  O -0.464168 0.471374 -0.615252
  H -3.210041 -2.741507 -1.273203
  H -3.230042 -1.096843 -1.912558
  H -3.887647 -1.436217 -0.309012
  H -1.647449 -2.037103 0.533302
  H -0.104986 -0.433843 -1.280116
  H -0.805727 -2.050176 -2.350511
  H 0.277290 -2.326658 -0.901878
  H -3.185000 0.224297 1.170055
  H -2.703270 1.646052 0.202945
  H -1.772761 1.221314 1.597946
  O 2.116570 -0.480380 -0.991778
  H 2.586966 0.002700 -1.676981
  H 2.783808 -0.826750 -0.392937
 19
 13.317972
  C -3.119729 -1.666409 -1.012826
  C -1.718395 -1.481385 -0.415124
  C -0.624784 -1.950532 -1.320338
  C -1.444546 -0.046251 -0.078979
  C -2.300653 0.753114 0.780553
  O -0.419608 0.463187 -0.605102
  H -3.272518 -2.715277 -1.247072
  H -3.224870 -1.089660 -1.926867
  H -3.890830 -1.359774 -0.314189
  H -1.665280 -2.029277 0.536969
  H -0.024070 -0.264880 -1.228906
  H -0.848759 -2.183035 -2.346190
  H 0.246066 -2.415624 -0.895109
  H -3.141060 0.194681 1.175636
  H -2.652905 1.621720 0.220553
  H -1.714119 1.174290 1.600010
  O 2.108022 -0.388401 -0.960131
  H 2.582122 0.124780 -1.621353
  H 2.773513 -0.742419 -0.364549
 19
 13.088552
  C -3.164816 -1.635204 -1.024310
  C -1.744107 -1.509865 -0.461769
  C -0.695694 -2.084507 -1.338642
  C -1.391118 -0.102854 -0.086882
  C -2.211962 0.710550 0.799293
  O -0.328128 0.390746 -0.563582
  H -3.380041 -2.681481 -1.219414
  H -3.253940 -1.088414 -1.958377
  H -3.906561 -1.263453 -0.326177
  H -1.700403 -2.036399 0.508368
  H 0.033991 -0.203403 -1.284544
  H -0.940210 -2.414501 -2.330328
  H 0.216239 -2.449344 -0.904196
  H -3.077125 0.182846 1.182477
  H -2.520930 1.606661 0.257501
  H -1.610247 1.084824 1.630364
  O 2.129698 -0.202521 -0.858025
  H 2.603143 0.319557 -1.511726
  H 2.799113 -0.602479 -0.296740
 19
 6.305791
  C -2.986843 -1.504723 -1.201198
  C -1.683041 -1.471737 -0.384771
  C -0.577129 -2.173969 -1.052811
  C -1.380200 -0.073059 0.048303
  C -2.344187 0.649654 0.891637
  O -0.310015 0.530154 -0.238236
  H -3.231503 -2.535119 -1.437102
  H -2.858394 -0.960508 -2.133870
  H -3.817485 -1.072237 -0.655728
  H -1.874922 -1.989882 0.572553
  H 0.425443 0.055352 -0.778969
  H -0.712073 -2.610130 -2.021762
  H 0.358687 -2.318447 -0.551710
  H -3.130723 0.015481 1.275888
  H -2.790717 1.453290 0.302135
  H -1.821130 1.148456 1.706670
  O 1.827235 -0.468135 -1.347263
  H 2.225022 0.101732 -2.013893
  H 2.538874 -0.755418 -0.766584
