 31
 0.000000
  C 0.904686 0.048754 0.271691
  C 2.396097 0.059154 0.087326
  C 3.238875 -0.012278 1.353362
  C 2.524787 -0.088320 2.700888
  C 3.529318 -0.152928 3.845968
  C 2.991148 0.127374 -1.121652
  C 2.350484 0.204784 -2.493535
  C 0.839679 0.217308 -2.715408
  C 0.522440 0.301430 -4.206252
  C 4.453087 0.132313 -1.209117
  C 5.192032 0.194592 -2.312945
  H 6.270484 0.194341 -2.308442
  H 0.604898 -0.009988 1.312663
  H 0.461352 -0.816528 -0.214296
  H 0.461352 0.963214 -0.113869
  H 3.884859 0.870952 1.383233
  H 3.884861 -0.893264 1.283685
  H 1.892256 -0.977996 2.744625
  H 1.892250 0.790783 2.844433
  H 4.164304 -1.032031 3.756945
  H 3.007909 -0.206732 4.799392
  H 4.164299 0.730608 3.856400
  H 2.740401 -0.643682 -3.066720
  H 2.740401 1.112350 -2.967632
  H 0.385649 1.078154 -2.226129
  H 0.385649 -0.693119 -2.326077
  H 0.933754 1.210100 -4.641509
  H -0.554756 0.310056 -4.359122
  H 0.933751 -0.552506 -4.740963
  H 4.995413 0.079765 -0.277831
  H 4.811061 0.251435 -3.320288
 31
 12.931859
  C 0.757205 0.045685 0.326074
  C 2.410157 0.057105 0.123629
  C 3.251356 -0.013394 1.373140
  C 2.534081 -0.089355 2.719239
  C 3.540454 -0.153916 3.863476
  C 3.037478 0.130569 -1.178266
  C 2.381014 0.207312 -2.538332
  C 0.867114 0.217989 -2.727477
  C 0.522593 0.301789 -4.212638
  C 4.491373 0.134855 -1.254163
  C 5.239214 0.196895 -2.353751
  H 6.317195 0.195401 -2.327266
  H 0.478229 -0.013252 1.370499
  H 0.323751 -0.817210 -0.164774
  H 0.323751 0.958321 -0.064585
  H 3.898613 0.869932 1.401497
  H 3.898618 -0.894304 1.301946
  H 1.901814 -0.978747 2.761338
  H 1.901803 0.789654 2.861125
  H 4.175493 -1.032770 3.772063
  H 3.021663 -0.207798 4.818288
  H 4.175483 0.729637 3.871507
  H 2.764243 -0.641020 -3.117241
  H 2.764244 1.115390 -3.018135
  H 0.423698 1.077305 -2.227205
  H 0.423700 -0.692150 -2.327051
  H 0.926334 1.210644 -4.654473
  H -0.556990 0.309408 -4.347644
  H 0.926332 -0.551591 -4.753907
  H 5.025095 0.081979 -0.317081
  H 4.861504 0.253769 -3.361662
 31
 37.592897
  C 0.609583 0.045847 0.323137
  C 2.507678 0.058318 0.102122
  C 3.301391 -0.013747 1.379411
  C 2.526254 -0.088287 2.700275
  C 3.488621 -0.154940 3.881671
  C 3.096656 0.133689 -1.233608
  C 2.410307 0.209045 -2.569083
  C 0.892654 0.215721 -2.687333
  C 0.485864 0.298495 -4.154189
  C 4.550531 0.137700 -1.304674
  C 5.284678 0.199731 -2.404004
  H 6.360262 0.196297 -2.343021
  H 0.443891 -0.013629 1.377227
  H 0.262591 -0.828552 -0.200101
  H 0.262592 0.973555 -0.098417
  H 3.955254 0.866975 1.435940
  H 3.955276 -0.895251 1.336499
  H 1.894378 -0.977138 2.710683
  H 1.894364 0.793751 2.810612
  H 4.125361 -1.033788 3.809202
  H 2.938996 -0.207812 4.818591
  H 4.125355 0.726492 3.908525
  H 2.782256 -0.635609 -3.157881
  H 2.782260 1.114572 -3.059122
  H 0.476301 1.073343 -2.160315
  H 0.476291 -0.695754 -2.260136
  H 0.872742 1.207040 -4.610496
  H -0.597507 0.303818 -4.248360
  H 0.872732 -0.552934 -4.709806
  H 5.082073 0.084937 -0.369547
  H 4.876403 0.255748 -3.396773
 31
 65.351496
  C 0.396299 0.041669 0.397125
  C 2.587845 0.059980 0.072677
  C 3.360026 -0.011695 1.342978
  C 2.552447 -0.084246 2.628528
  C 3.472125 -0.152533 3.838901
  C 3.139820 0.133542 -1.230937
  C 2.453232 0.208431 -2.558080
  C 0.940163 0.213991 -2.656506
  C 0.509012 0.296560 -4.119730
  C 4.581952 0.137692 -1.304479
  C 5.309748 0.200587 -2.419155
  H 6.388144 0.197842 -2.370668
  H 0.302536 -0.018730 1.467498
  H 0.066051 -0.841302 -0.119244
  H 0.066051 0.977121 -0.016631
  H 4.006163 0.863804 1.407784
  H 4.006156 -0.888895 1.308881
  H 1.917049 -0.970879 2.617197
  H 1.917059 0.798000 2.717012
  H 4.109058 -1.033616 3.788926
  H 2.889770 -0.204288 4.755778
  H 4.109116 0.728654 3.888368
  H 2.814924 -0.639093 -3.146412
  H 2.814921 1.116754 -3.047336
  H 0.526628 1.069416 -2.126681
  H 0.526614 -0.695601 -2.226276
  H 0.886871 1.207137 -4.583191
  H -0.577239 0.300848 -4.195875
  H 0.886862 -0.556136 -4.682684
  H 5.117341 0.084690 -0.365254
  H 4.887122 0.256356 -3.407613
 31
 86.968080
  C 0.220580 0.039524 0.435151
  C 2.709993 0.062775 0.023236
  C 3.421170 -0.010340 1.319090
  C 2.539630 -0.080902 2.569347
  C 3.387428 -0.152233 3.833716
  C 3.223847 0.134330 -1.244790
  C 2.511129 0.208518 -2.559586
  C 0.990516 0.209989 -2.585770
  C 0.484132 0.291176 -4.024474
  C 4.673492 0.141083 -1.364421
  C 5.367744 0.205057 -2.498410
  H 6.443065 0.203875 -2.477930
  H 0.186528 -0.020801 1.504048
  H -0.067096 -0.846023 -0.100548
  H -0.067113 0.979707 0.002472
  H 4.069168 0.872362 1.413724
  H 4.069206 -0.898087 1.313825
  H 1.903939 -0.963757 2.512163
  H 1.903926 0.802740 2.611840
  H 4.023470 -1.034268 3.820553
  H 2.753402 -0.201987 4.715263
  H 4.023483 0.725746 3.919873
  H 2.851843 -0.638959 -3.160837
  H 2.851828 1.118204 -3.061640
  H 0.611645 1.065702 -2.026161
  H 0.611666 -0.703241 -2.125991
  H 0.835493 1.202066 -4.506525
  H -0.603725 0.292360 -4.045652
  H 0.835471 -0.559624 -4.605890
  H 5.223964 0.088959 -0.440782
  H 4.911981 0.259986 -3.472366
 31
 100.904635
  C 0.010147 0.037467 0.471391
  C 2.783936 0.065319 -0.021823
  C 3.454735 -0.008745 1.290844
  C 2.548804 -0.077816 2.514554
  C 3.359008 -0.149997 3.793946
  C 3.281374 0.135200 -1.260159
  C 2.535868 0.209749 -2.581463
  C 1.035783 0.207244 -2.537015
  C 0.456149 0.286748 -3.946001
  C 4.754526 0.142091 -1.382114
  C 5.455517 0.205498 -2.506159
  H 6.543789 0.203729 -2.475644
  H 0.016407 -0.023462 1.551064
  H -0.236990 -0.853594 -0.077297
  H -0.237017 0.984588 0.026433
  H 4.095712 0.867768 1.400986
  H 4.095725 -0.892060 1.301679
  H 1.916283 -0.956048 2.436026
  H 1.916299 0.803606 2.535322
  H 3.992625 -1.031461 3.796676
  H 2.702454 -0.198689 4.656627
  H 3.992698 0.725690 3.895852
  H 2.854640 -0.633046 -3.190078
  H 2.854573 1.115597 -3.091363
  H 0.691720 1.056055 -1.955952
  H 0.691744 -0.701498 -2.055153
  H 0.780479 1.201026 -4.446653
  H -0.633335 0.284779 -3.911222
  H 0.780448 -0.565331 -4.546266
  H 5.288335 0.089743 -0.454539
  H 5.006598 0.260490 -3.481649
 31
 109.306327
  C -0.159483 0.033385 0.543947
  C 2.886378 0.068401 -0.076594
  C 3.508185 -0.007220 1.263659
  C 2.529174 -0.074354 2.453317
  C 3.271819 -0.149372 3.783003
  C 3.366921 0.136779 -1.288502
  C 2.599207 0.210312 -2.591916
  C 1.088770 0.204065 -2.480918
  C 0.436086 0.281975 -3.861768
  C 4.828428 0.144986 -1.433854
  C 5.504611 0.209454 -2.576248
  H 6.580116 0.209167 -2.570262
  H -0.104464 -0.027475 1.622563
  H -0.368874 -0.861887 -0.013307
  H -0.368887 0.985656 0.090942
  H 4.152617 0.878417 1.404197
  H 4.152655 -0.903092 1.303689
  H 1.895887 -0.953674 2.338073
  H 1.895888 0.812344 2.437712
  H 3.902053 -1.033483 3.821144
  H 2.568369 -0.196015 4.609541
  H 3.902095 0.724881 3.920369
  H 2.905800 -0.636095 -3.210304
  H 2.905734 1.120830 -3.111125
  H 0.771740 1.054635 -1.877011
  H 0.771743 -0.708979 -1.976550
  H 0.732021 1.195925 -4.377350
  H -0.649554 0.276955 -3.772813
  H 0.731947 -0.568019 -4.476733
  H 5.370697 0.093235 -0.516264
  H 5.026873 0.264501 -3.551811
 31
 113.320890
  C -0.298303 0.028800 0.625911
  C 2.978459 0.069830 -0.102202
  C 3.536209 -0.005903 1.240059
  C 2.497495 -0.068641 2.352197
  C 3.149536 -0.145699 3.717755
  C 3.459715 0.138908 -1.326753
  C 2.655737 0.210260 -2.591240
  C 1.147302 0.198970 -2.390648
  C 0.415075 0.273804 -3.716622
  C 4.926446 0.149077 -1.507294
  C 5.573683 0.214439 -2.664840
  H 6.653598 0.216134 -2.691649
  H -0.228841 -0.030772 1.681833
  H -0.469727 -0.861353 0.065703
  H -0.469711 0.976321 0.169379
  H 4.167992 0.875632 1.415299
  H 4.167900 -0.901472 1.315023
  H 1.870660 -0.941080 2.195625
  H 1.870652 0.815916 2.294751
  H 3.771459 -1.030948 3.796272
  H 2.395788 -0.189513 4.494554
  H 3.771413 0.725005 3.895338
  H 2.938689 -0.636353 -3.222212
  H 2.938698 1.122390 -3.122929
  H 0.864169 1.041835 -1.770418
  H 0.864108 -0.708358 -1.869134
  H 0.674705 1.185384 -4.246772
  H -0.657751 0.264941 -3.559126
  H 0.674672 -0.572382 -4.345958
  H 5.492806 0.097641 -0.594713
  H 5.087946 0.267224 -3.598141
 31
 115.344665
  C -0.460819 0.025805 0.679081
  C 3.074020 0.071842 -0.137489
  C 3.583587 -0.005460 1.232443
  C 2.486767 -0.065439 2.295786
  C 3.072522 -0.145113 3.707542
  C 3.545059 0.140503 -1.354290
  C 2.686564 0.211422 -2.610768
  C 1.193374 0.195838 -2.335290
  C 0.387465 0.268632 -3.625269
  C 5.008841 0.151808 -1.554675
  C 5.631508 0.217643 -2.721328
  H 6.715623 0.220287 -2.768703
  H -0.406445 -0.034022 1.739182
  H -0.599579 -0.860461 0.110447
  H -0.599567 0.970420 0.213772
  H 4.205475 0.870577 1.435984
  H 4.205626 -0.899005 1.336163
  H 1.859989 -0.942771 2.101351
  H 1.859921 0.828291 2.201262
  H 3.692306 -1.039558 3.819690
  H 2.272135 -0.187061 4.451192
  H 3.692224 0.730928 3.919561
  H 2.943994 -0.633001 -3.252036
  H 2.944130 1.122959 -3.153125
  H 0.943616 1.038719 -1.696106
  H 0.943677 -0.713588 -1.795057
  H 0.616076 1.182187 -4.169386
  H -0.680576 0.256474 -3.410129
  H 0.616189 -0.578126 -4.268974
  H 5.596180 0.099388 -0.625968
  H 5.104714 0.271583 -3.677266
 31
 115.777289
  C -0.604203 0.021856 0.749323
  C 3.193287 0.074069 -0.177386
  C 3.632966 -0.005191 1.227108
  C 2.468289 -0.060743 2.212784
  C 2.952515 -0.141454 3.643352
  C 3.638134 0.142040 -1.381962
  C 2.719602 0.211556 -2.613416
  C 1.238485 0.191169 -2.252517
  C 0.352145 0.261334 -3.496557
  C 5.097644 0.154967 -1.611149
  C 5.697106 0.221658 -2.792280
  H 6.756353 0.225517 -2.859055
  H -0.564516 -0.038441 1.817661
  H -0.714601 -0.873425 0.167268
  H -0.714574 0.976959 0.271694
  H 4.246485 0.872547 1.474166
  H 4.246852 -0.905651 1.373975
  H 1.856927 -0.926894 1.977922
  H 1.856921 0.826397 2.076794
  H 3.552245 -1.027099 3.793810
  H 2.113494 -0.179805 4.323756
  H 3.552194 0.721516 3.892401
  H 2.942557 -0.632871 -3.268209
  H 2.942678 1.124676 -3.169360
  H 1.023240 1.037790 -1.593248
  H 1.023286 -0.724205 -1.692680
  H 0.544208 1.174818 -4.053214
  H -0.698478 0.245686 -3.219058
  H 0.544277 -0.583880 -4.152595
  H 5.706537 0.102644 -0.683593
  H 5.160473 0.273711 -3.713325
 31
 115.447299
  C -0.737937 0.015178 0.866660
  C 3.281885 0.074750 -0.189207
  C 3.651284 -0.004703 1.218730
  C 2.416827 -0.056947 2.144841
  C 2.820308 -0.139906 3.615345
  C 3.707159 0.143904 -1.414574
  C 2.768598 0.210714 -2.598509
  C 1.304989 0.187458 -2.186295
  C 0.380976 0.255466 -3.391830
  C 5.146929 0.159714 -1.694436
  C 5.700474 0.227766 -2.900201
  H 6.778981 0.234244 -3.015386
  H -0.703345 -0.045084 1.934343
  H -0.826012 -0.871032 0.288778
  H -0.826021 0.960788 0.392170
  H 4.254269 0.873016 1.497767
  H 4.254311 -0.908266 1.397272
  H 1.811212 -0.924693 1.874982
  H 1.811343 0.835490 1.974331
  H 3.414054 -1.038029 3.803185
  H 1.934164 -0.175802 4.251571
  H 3.414171 0.731505 3.903078
  H 2.974013 -0.638971 -3.261835
  H 2.973932 1.129486 -3.161976
  H 1.110900 1.029053 -1.522831
  H 1.110917 -0.723403 -1.621700
  H 0.551421 1.169119 -3.954133
  H -0.655214 0.237701 -3.077107
  H 0.551393 -0.588953 -4.053155
  H 5.774017 0.109987 -0.813441
  H 5.125075 0.278463 -3.799193
 31
 115.262469
  C -0.888293 0.008892 0.979104
  C 3.370356 0.074926 -0.191995
  C 3.673619 -0.004372 1.213348
  C 2.387715 -0.053289 2.079839
  C 2.717181 -0.137046 3.563859
  C 3.772274 0.144489 -1.424905
  C 2.801512 0.209605 -2.578957
  C 1.337804 0.183814 -2.121476
  C 0.378298 0.250224 -3.298645
  C 5.206893 0.162663 -1.747166
  C 5.723161 0.231553 -2.967930
  H 6.785083 0.239819 -3.114135
  H -0.862127 -0.050612 2.033546
  H -0.955031 -0.893328 0.389838
  H -0.955032 0.971687 0.495083
  H 4.266054 0.873515 1.519037
  H 4.265953 -0.910943 1.418298
  H 1.792146 -0.917414 1.782518
  H 1.791987 0.839016 1.881583
  H 3.295640 -1.032724 3.779711
  H 1.804822 -0.170255 4.152287
  H 3.295434 0.728392 3.879009
  H 2.991046 -0.637679 -3.243991
  H 2.991022 1.126369 -3.144509
  H 1.159280 1.020445 -1.456442
  H 1.159259 -0.722275 -1.554763
  H 0.530433 1.161251 -3.863689
  H -0.652874 0.230689 -2.951950
  H 0.530464 -0.591793 -3.962828
  H 5.858024 0.114131 -0.887068
  H 5.113150 0.281957 -3.860724
