 19
 0.000000
  C -3.256088 -1.743828 -0.489050
  C -1.774785 -1.523220 -0.627287
  C -1.305024 -1.561389 -2.069406
  C -1.186048 -0.203341 -0.032272
  C -2.168000 0.799469 0.462308
  O -0.009561 -0.023857 -0.008965
  H -3.502739 -2.733387 -0.878486
  H -3.838674 -1.033187 -1.073456
  H -3.577485 -1.725379 0.550062
  H -1.253027 -2.294829 -0.040040
  H -1.753331 -0.771251 -2.672071
  H -1.610254 -2.509055 -2.513377
  H -0.223759 -1.466624 -2.135876
  H -3.196739 0.465000 0.428534
  H -2.046239 1.695574 -0.148952
  H -1.887480 1.046949 1.487137
  O 3.351895 -0.185339 -0.061178
  H 3.528506 -0.466694 -0.967756
  H 2.403357 -0.010764 -0.008889
 19
 -0.223729
  C -3.203776 -1.746576 -0.471634
  C -1.735246 -1.528635 -0.636130
  C -1.280712 -1.532607 -2.076274
  C -1.129133 -0.199229 -0.031261
  C -2.114441 0.802165 0.445262
  O 0.054284 -0.048203 -0.008513
  H -3.439476 -2.748081 -0.838933
  H -3.799220 -1.064193 -1.072031
  H -3.511800 -1.723121 0.568344
  H -1.184255 -2.270297 -0.041140
  H -1.762403 -0.754391 -2.663972
  H -1.579665 -2.476982 -2.527084
  H -0.205283 -1.420519 -2.158561
  H -3.141984 0.481743 0.402014
  H -1.971208 1.692616 -0.160284
  H -1.836108 1.064405 1.460578
  O 3.098025 -0.234453 -0.044021
  H 3.294016 -0.491704 -0.952098
  H 2.147442 -0.043728 0.008573
 19
 0.812920
  C -3.134458 -1.744410 -0.466667
  C -1.682487 -1.517088 -0.635480
  C -1.235347 -1.510991 -2.065687
  C -1.085401 -0.177690 -0.027403
  C -2.082485 0.809166 0.441645
  O 0.101399 -0.033343 -0.007594
  H -3.356699 -2.747447 -0.825585
  H -3.737325 -1.072713 -1.071014
  H -3.441886 -1.718661 0.573340
  H -1.116201 -2.243511 -0.044614
  H -1.732797 -0.736587 -2.652541
  H -1.521727 -2.461798 -2.518537
  H -0.156520 -1.385107 -2.151765
  H -3.135137 0.474798 0.392167
  H -1.945526 1.711694 -0.165969
  H -1.814378 1.080957 1.468015
  O 2.836214 -0.322719 -0.066088
  H 3.029273 -0.567765 -0.978909
  H 1.919645 -0.064838 0.005963
 19
 3.131859
  C -3.109942 -1.756468 -0.438637
  C -1.636158 -1.510717 -0.636689
  C -1.217063 -1.487544 -2.089311
  C -1.048396 -0.184249 -0.034958
  C -2.044226 0.817112 0.417179
  O 0.135519 -0.025528 0.003262
  H -3.330046 -2.766466 -0.786538
  H -3.728430 -1.092456 -1.035478
  H -3.396130 -1.725241 0.610352
  H -1.062771 -2.248030 -0.068163
  H -1.733494 -0.713035 -2.653949
  H -1.506859 -2.437904 -2.544805
  H -0.149463 -1.354653 -2.199820
  H -3.069702 0.492270 0.355347
  H -1.892430 1.712855 -0.192616
  H -1.786115 1.091248 1.444247
  O 2.685143 -0.373894 -0.028466
  H 2.873755 -0.556221 -0.956240
  H 1.742263 -0.088952 0.040940
 19
 8.561428
  C -3.071846 -1.769917 -0.426380
  C -1.598524 -1.498375 -0.637622
  C -1.206566 -1.463521 -2.088096
  C -1.021667 -0.177660 -0.041836
  C -2.010480 0.832213 0.398830
  O 0.161951 0.004548 0.010843
  H -3.280947 -2.789788 -0.772034
  H -3.705649 -1.113581 -1.020831
  H -3.344823 -1.738769 0.625000
  H -1.004909 -2.257083 -0.081092
  H -1.745320 -0.682231 -2.639672
  H -1.495025 -2.418369 -2.543716
  H -0.131763 -1.317058 -2.214905
  H -3.034600 0.507398 0.328583
  H -1.849780 1.725372 -0.210718
  H -1.759502 1.108478 1.423099
  O 2.534723 -0.439318 -0.015087
  H 2.725369 -0.578777 -0.947791
  H 1.582447 -0.113205 0.055400
 19
 15.278433
  C -3.038537 -1.784054 -0.396021
  C -1.559708 -1.485582 -0.632868
  C -1.196288 -1.437892 -2.114116
  C -1.012054 -0.167991 -0.044187
  C -2.003248 0.848694 0.378967
  O 0.176123 0.042233 0.027684
  H -3.237187 -2.804677 -0.729911
  H -3.686841 -1.138260 -0.981864
  H -3.292648 -1.745081 0.657392
  H -0.957069 -2.241715 -0.108802
  H -1.753835 -0.668835 -2.644379
  H -1.474776 -2.386727 -2.565479
  H -0.135581 -1.274670 -2.266062
  H -3.028371 0.519418 0.293371
  H -1.834324 1.740855 -0.227335
  H -1.767661 1.130476 1.406168
  O 2.442254 -0.530070 0.003351
  H 2.682815 -0.593010 -0.926713
  H 1.443028 -0.171776 0.065925
 19
 22.683246
  C -2.997979 -1.800351 -0.393552
  C -1.534999 -1.476729 -0.632733
  C -1.189551 -1.418683 -2.105965
  C -1.008218 -0.154074 -0.045922
  C -1.992688 0.868717 0.369429
  O 0.179561 0.079549 0.036457
  H -3.181067 -2.819766 -0.725954
  H -3.659654 -1.159731 -0.979074
  H -3.248526 -1.762572 0.667998
  H -0.928102 -2.228018 -0.128064
  H -1.764476 -0.653794 -2.620452
  H -1.459550 -2.376380 -2.561333
  H -0.120794 -1.236841 -2.268735
  H -3.011118 0.538922 0.278004
  H -1.821463 1.761487 -0.233163
  H -1.763919 1.156488 1.397284
  O 2.356000 -0.602225 -0.006445
  H 2.626504 -0.638295 -0.928539
  H 1.312500 -0.188474 0.061451
 19
 27.289875
  C -2.953057 -1.795698 -0.381928
  C -1.501170 -1.447957 -0.618104
  C -1.158194 -1.388250 -2.115496
  C -1.018198 -0.133857 -0.041658
  C -2.008626 0.875518 0.359850
  O 0.168360 0.148911 0.053926
  H -3.121440 -2.833714 -0.698659
  H -3.622750 -1.162378 -0.948050
  H -3.189461 -1.760499 0.671362
  H -0.863383 -2.219059 -0.113267
  H -1.756830 -0.623972 -2.634512
  H -1.411596 -2.344247 -2.563606
  H -0.114967 -1.192460 -2.282770
  H -3.025947 0.524467 0.261671
  H -1.847574 1.774737 -0.240367
  H -1.793709 1.172706 1.384070
  O 2.287651 -0.716464 -0.033191
  H 2.568908 -0.756454 -0.951193
  H 1.189104 -0.190377 0.057301
 19
 29.470977
  C -2.911761 -1.811203 -0.370372
  C -1.464294 -1.422558 -0.604874
  C -1.125983 -1.352423 -2.101995
  C -1.029648 -0.105682 -0.035221
  C -2.034074 0.894038 0.354799
  O 0.156912 0.216485 0.065922
  H -3.050842 -2.841515 -0.694262
  H -3.594979 -1.192582 -0.945863
  H -3.154505 -1.780299 0.680075
  H -0.819677 -2.170466 -0.112546
  H -1.738368 -0.618913 -2.605628
  H -1.354470 -2.309576 -2.547037
  H -0.066262 -1.123193 -2.277290
  H -3.041548 0.528665 0.253454
  H -1.888984 1.795935 -0.250127
  H -1.833255 1.204610 1.386046
  O 2.232397 -0.851181 -0.085017
  H 2.505790 -0.907003 -1.005947
  H 1.084940 -0.183664 0.044699
 19
 31.922469
  C -2.868442 -1.821933 -0.361423
  C -1.438504 -1.398240 -0.592987
  C -1.103663 -1.321840 -2.088664
  C -1.044546 -0.075897 -0.027100
  C -2.062704 0.911349 0.347759
  O 0.140375 0.265971 0.083614
  H -2.978054 -2.853935 -0.691482
  H -3.560103 -1.219547 -0.942393
  H -3.114056 -1.789575 0.692279
  H -0.774145 -2.127212 -0.106840
  H -1.738671 -0.600751 -2.596050
  H -1.305056 -2.289139 -2.534429
  H -0.062241 -1.068204 -2.260944
  H -3.072873 0.536119 0.241720
  H -1.922893 1.811876 -0.256574
  H -1.873559 1.233888 1.374740
  O 2.219861 -0.979110 -0.131803
  H 2.487582 -1.041809 -1.054598
  H 0.997498 -0.159788 0.039685
 19
 36.217022
  C -2.874693 -1.843510 -0.349122
  C -1.409862 -1.376090 -0.590062
  C -1.079753 -1.293774 -2.091302
  C -1.049265 -0.046614 -0.019692
  C -2.074527 0.926146 0.337661
  O 0.136181 0.312563 0.119730
  H -2.966676 -2.880910 -0.674733
  H -3.580689 -1.250571 -0.920975
  H -3.112159 -1.813288 0.701863
  H -0.725496 -2.104436 -0.105355
  H -1.733606 -0.586963 -2.596776
  H -1.258580 -2.264155 -2.536121
  H -0.042356 -1.015338 -2.267629
  H -3.073955 0.544682 0.212472
  H -1.932251 1.831875 -0.260355
  H -1.908628 1.245648 1.369557
  O 2.223294 -1.081274 -0.171729
  H 2.515620 -1.106610 -1.088124
  H 0.932257 -0.131373 0.050418
 19
 36.810229
  C -2.733062 -1.891581 -0.323791
  C -1.329984 -1.285910 -0.558708
  C -1.030540 -1.169982 -2.061693
  C -1.106947 0.080903 -0.009006
  C -2.198932 0.981772 0.328924
  O 0.075603 0.500950 0.123979
  H -2.722832 -2.927492 -0.662393
  H -3.488503 -1.377249 -0.913812
  H -2.993233 -1.878537 0.723172
  H -0.581003 -1.942913 -0.091717
  H -1.758819 -0.523077 -2.553249
  H -1.118067 -2.158389 -2.516965
  H -0.036584 -0.788316 -2.250436
  H -3.181167 0.546806 0.205485
  H -2.109840 1.893356 -0.269757
  H -2.066594 1.332340 1.351282
  O 2.178824 -1.509429 -0.274643
  H 2.467037 -1.669215 -1.172665
  H 0.776650 -0.084256 0.026631
 19
 38.680907
  C -2.602393 -1.931500 -0.291740
  C -1.269683 -1.205609 -0.558801
  C -1.006820 -1.064290 -2.071108
  C -1.141749 0.162518 -0.003997
  C -2.286794 1.005822 0.303205
  O 0.029428 0.631260 0.165614
  H -2.518729 -2.964112 -0.645924
  H -3.412248 -1.474675 -0.842961
  H -2.833609 -1.947453 0.763608
  H -0.459525 -1.809380 -0.118580
  H -1.782652 -0.463689 -2.537338
  H -1.036111 -2.050196 -2.531628
  H -0.047538 -0.609641 -2.281028
  H -3.236181 0.511625 0.161587
  H -2.235319 1.926904 -0.299020
  H -2.205834 1.373334 1.324588
  O 2.125132 -1.838828 -0.301186
  H 2.348736 -2.094646 -1.184783
  H 0.710062 0.037904 0.050332
