18

H -2.475635912529934 0.7015202685917306 -0.058150980191571194
C -2.061516 0.588058 -0.029259
C -1.647354 -0.473766 0.640844
C -0.236596 -0.944452 0.800153
C 0.810685 -0.080571 0.107278
C 2.221323 -0.616983 0.339106
C 3.280648 0.215834 -0.3924
H -1.356837 1.227206 -0.539976
H -2.380586 -1.097345 1.142053
H -0.009934 -0.99684 1.872069
H -0.174829 -1.967752 0.409536
H 0.605517 -0.059696 -0.966033
H 0.750877 0.940567 0.489893
H 2.424774 -0.594028 1.413128
H 2.266529 -1.660151 0.020743
H 3.980042 0.668444 0.308968
H 3.851533 -0.395363 -1.090123
H 2.816196 1.018949 -0.963058
