 26
 0.000000
  H 1.526235 0.057076 0.124201
  C 2.600548 0.062318 0.031289
  C 3.349120 -0.011076 1.332060
  C 2.435503 -0.079926 2.552111
  C 3.236487 -0.152979 3.846812
  C 3.170494 0.130556 -1.178025
  C 2.379338 0.202873 -2.459653
  C 0.861994 0.195444 -2.327950
  H 0.405014 0.251015 -3.312856
  C 4.617006 0.139227 -1.331630
  C 5.293006 0.204007 -2.479818
  O 6.646593 0.209581 -2.578564
  H 3.996659 0.866563 1.433038
  H 3.996657 -0.894496 1.333664
  H 1.793289 -0.960788 2.480767
  H 1.793280 0.803368 2.580318
  H 3.870113 -1.037590 3.858422
  H 2.568870 -0.201367 4.704256
  H 3.870108 0.724712 3.957861
  H 2.674460 -0.641109 -3.090880
  H 2.674459 1.112511 -2.991931
  H 0.519108 1.048158 -1.745913
  H 0.519109 -0.717331 -1.845534
  H 5.200124 0.087831 -0.420719
  H 4.847568 0.259315 -3.460011
  H 7.036007 0.159766 -1.695623
 26
 6.941863
  H 1.560507 0.057994 0.107960
  C 2.634112 0.063745 0.006010
  C 3.390454 -0.009079 1.296667
  C 2.381065 -0.085104 2.643866
  C 3.184461 -0.157790 3.932079
  C 3.191045 0.132236 -1.207779
  C 2.382931 0.203972 -2.479114
  C 0.867773 0.195120 -2.322204
  H 0.395160 0.250292 -3.300033
  C 4.635365 0.141788 -1.376990
  C 5.297806 0.206976 -2.532418
  O 6.650152 0.213453 -2.647171
  H 4.034554 0.867312 1.400456
  H 4.034554 -0.891577 1.301206
  H 1.741765 -0.964383 2.567822
  H 1.741758 0.797144 2.667224
  H 3.818288 -1.042270 3.941701
  H 2.518841 -0.206265 4.791060
  H 3.818287 0.719997 4.041140
  H 2.669699 -0.640084 -3.114153
  H 2.669699 1.114110 -3.015172
  H 0.533545 1.047495 -1.734823
  H 0.533544 -0.717923 -1.834437
  H 5.228203 0.090725 -0.471995
  H 4.840123 0.261966 -3.506997
  H 7.050286 0.163912 -1.769103
 26
 21.826678
  H 1.605111 0.058195 0.104392
  C 2.678095 0.064607 -0.009250
  C 3.442852 -0.007119 1.261935
  C 2.319705 -0.089551 2.722682
  C 3.120079 -0.161512 3.998005
  C 3.218321 0.133598 -1.231898
  C 2.385444 0.204511 -2.488667
  C 0.874508 0.193510 -2.293677
  H 0.379044 0.248065 -3.260571
  C 4.660101 0.144320 -1.421859
  C 5.304412 0.210100 -2.587778
  O 6.654808 0.217848 -2.725052
  H 4.074744 0.867303 1.387608
  H 4.074747 -0.890126 1.288441
  H 1.690476 -0.966028 2.621449
  H 1.690464 0.792751 2.720694
  H 3.753998 -1.046120 4.008060
  H 2.451739 -0.209932 4.856010
  H 3.754000 0.716358 4.107513
  H 2.659940 -0.639789 -3.128694
  H 2.659939 1.115448 -3.029650
  H 0.553355 1.045463 -1.698734
  H 0.553355 -0.719962 -1.798350
  H 5.265413 0.093676 -0.524291
  H 4.829148 0.264614 -3.553928
  H 7.070193 0.168710 -1.854124
 26
 38.205124
  H 1.640948 0.058663 0.096081
  C 2.712545 0.065715 -0.028896
  C 3.493856 -0.005426 1.231923
  C 2.261636 -0.094455 2.809565
  C 3.070329 -0.166034 4.078183
  C 3.236567 0.135094 -1.258437
  C 2.386337 0.205396 -2.504356
  C 0.878754 0.193077 -2.286017
  H 0.369571 0.247232 -3.245824
  C 4.675029 0.146687 -1.463829
  C 5.305088 0.212855 -2.636602
  O 6.653273 0.221560 -2.790846
  H 4.116727 0.873681 1.380668
  H 4.116734 -0.895687 1.280829
  H 1.639699 -0.974897 2.683358
  H 1.639692 0.794588 2.783206
  H 3.704634 -1.050608 4.086784
  H 2.403695 -0.214652 4.939761
  H 3.704630 0.711964 4.186238
  H 2.652750 -0.638989 -3.147293
  H 2.652753 1.116759 -3.048232
  H 0.565684 1.044932 -1.686784
  H 0.565686 -0.720777 -1.786417
  H 5.288948 0.096377 -0.572171
  H 4.816462 0.266993 -3.596092
  H 7.079939 0.172732 -1.925406
 26
 54.580609
  H 1.675187 0.058706 0.095348
  C 2.745284 0.066495 -0.042698
  C 3.540259 -0.003591 1.199407
  C 2.203604 -0.099415 2.897468
  C 3.020345 -0.170126 4.150668
  C 3.253331 0.136341 -1.280510
  C 2.386638 0.206000 -2.515043
  C 0.882220 0.192480 -2.275409
  H 0.360225 0.246257 -3.228476
  C 4.690477 0.148836 -1.501902
  C 5.308168 0.215498 -2.683417
  O 6.654660 0.225117 -2.853875
  H 4.150597 0.876096 1.368397
  H 4.150600 -0.896698 1.268363
  H 1.592662 -0.979858 2.749884
  H 1.592650 0.792042 2.849867
  H 3.654460 -1.054333 4.155136
  H 2.359368 -0.219044 5.017556
  H 3.654455 0.707969 4.254576
  H 2.645379 -0.638590 -3.160851
  H 2.645378 1.117873 -3.061737
  H 0.576663 1.044301 -1.672262
  H 0.576660 -0.721787 -1.771910
  H 5.312886 0.098838 -0.615765
  H 4.807176 0.269281 -3.636629
  H 7.091901 0.176584 -1.993674
