 26
 0.000000
  C 0.999206 0.147392 0.418776
  C 2.473847 0.139324 0.398052
  C 3.241868 0.608314 1.563998
  H 2.628195 0.941161 2.392297
  C 3.083416 -0.327003 -0.762402
  C 4.457041 -0.415978 -0.984801
  C 5.125391 -0.870322 -2.117671
  C 4.615575 -1.390800 -3.415437
  C 3.123387 -1.505081 -3.701498
  C 2.903149 -2.067421 -5.103652
  O 6.445644 -0.869747 -2.116787
  H 0.593673 0.523083 1.353384
  H 0.616282 -0.860720 0.255338
  H 0.615854 0.761685 -0.396908
  H 3.895808 1.429178 1.263203
  H 3.896269 -0.191932 1.915054
  H 2.418192 -0.642741 -1.547624
  H 5.097708 -0.090434 -0.174602
  H 5.071990 -2.379048 -3.544364
  H 5.072584 -0.765961 -4.191551
  H 2.650066 -0.524176 -3.648379
  H 2.649529 -2.177137 -2.985383
  H 3.344187 -1.419968 -5.857864
  H 1.839515 -2.150544 -5.311771
  H 3.343709 -3.056842 -5.201317
  H 6.843414 -0.538657 -1.289621
 26
 -0.265062
  C 0.999036 0.062694 0.517372
  C 2.463405 0.160296 0.370976
  C 3.252713 0.812870 1.433850
  H 2.612544 1.247009 2.195308
  C 3.044477 -0.379487 -0.769974
  C 4.420302 -0.439131 -0.988229
  C 5.112088 -0.926311 -2.093940
  C 4.617258 -1.444694 -3.397187
  C 3.129796 -1.528524 -3.706311
  C 2.926688 -2.045666 -5.128609
  O 6.430223 -0.942327 -2.063541
  H 0.652617 0.438905 1.473132
  H 0.670320 -0.968944 0.392787
  H 0.507014 0.624619 -0.279275
  H 3.892385 1.592520 1.024609
  H 3.909090 0.086596 1.914917
  H 2.374181 -0.790804 -1.503193
  H 5.047285 -0.078499 -0.181150
  H 5.063626 -2.438474 -3.520567
  H 5.102508 -0.829274 -4.165816
  H 2.670860 -0.542395 -3.628931
  H 2.638250 -2.217698 -3.019199
  H 3.387656 -1.380975 -5.854143
  H 1.867357 -2.112321 -5.358936
  H 3.360294 -3.034802 -5.248688
  H 6.826713 -0.613892 -1.234892
 26
 0.223516
  C 1.012879 -0.019323 0.638902
  C 2.444589 0.153088 0.337803
  C 3.240010 1.019673 1.236341
  H 2.604046 1.539174 1.946990
  C 3.015377 -0.489167 -0.750562
  C 4.392467 -0.489460 -0.976857
  C 5.112072 -1.008944 -2.048984
  C 4.636843 -1.489916 -3.374399
  C 3.150426 -1.537728 -3.703137
  C 2.953721 -1.989776 -5.148142
  O 6.426709 -1.055449 -1.977482
  H 0.729978 0.440819 1.579009
  H 0.747419 -1.077168 0.653830
  H 0.409712 0.418831 -0.159667
  H 3.810334 1.758383 0.675963
  H 3.949506 0.420442 1.809327
  H 2.360409 -1.041917 -1.401048
  H 4.988644 -0.050005 -0.181989
  H 5.070674 -2.485241 -3.523640
  H 5.141228 -0.855371 -4.113609
  H 2.704966 -0.549712 -3.582881
  H 2.640594 -2.247301 -3.051607
  H 3.434734 -1.302497 -5.840260
  H 1.895212 -2.027852 -5.392297
  H 3.372109 -2.981145 -5.305897
  H 6.803914 -0.744993 -1.132870
 26
 3.070383
  C 1.035221 -0.088947 0.739345
  C 2.431706 0.089128 0.308737
  C 3.217189 1.134382 1.013357
  H 2.574715 1.723481 1.664957
  C 2.995715 -0.660368 -0.699215
  C 4.366753 -0.585515 -0.953895
  C 5.121828 -1.139176 -1.989115
  C 4.656848 -1.535465 -3.349010
  C 3.170372 -1.483720 -3.690570
  C 2.970765 -1.806815 -5.170548
  O 6.431017 -1.241388 -1.871229
  H 0.772520 0.552356 1.575344
  H 0.850809 -1.133475 1.008398
  H 0.354750 0.114783 -0.091048
  H 3.694694 1.819034 0.315779
  H 3.970907 0.687043 1.659120
  H 2.376151 -1.362592 -1.230578
  H 4.907189 -0.023850 -0.191923
  H 5.044232 -2.540009 -3.552776
  H 5.199237 -0.878522 -4.037425
  H 2.770597 -0.488734 -3.484902
  H 2.616108 -2.212482 -3.101744
  H 3.501425 -1.093430 -5.799248
  H 1.915748 -1.766787 -5.430849
  H 3.338024 -2.803883 -5.402188
  H 6.788013 -0.976190 -1.002528
 26
 17.567063
  C 1.088423 -0.196138 0.924811
  C 2.419969 -0.059611 0.302691
  C 3.167833 1.215827 0.537779
  H 2.498779 1.886949 1.099187
  C 2.995179 -1.027876 -0.494752
  C 4.290544 -0.809372 -0.945292
  C 5.129685 -1.326839 -1.928087
  C 4.733456 -1.509716 -3.350813
  C 3.259462 -1.280060 -3.671230
  C 3.002458 -1.501320 -5.157339
  O 6.393415 -1.574304 -1.700872
  H 0.770926 0.710096 1.428664
  H 1.092375 -1.014179 1.649181
  H 0.341195 -0.473901 0.179293
  H 3.357693 1.790574 -0.361856
  H 3.962239 1.120149 1.276176
  H 2.487107 -1.960804 -0.682829
  H 4.657893 0.097693 -0.393506
  H 5.017509 -2.528368 -3.637334
  H 5.361404 -0.842036 -3.947846
  H 2.977751 -0.261493 -3.400987
  H 2.638216 -1.968480 -3.099111
  H 3.621688 -0.840995 -5.758854
  H 1.960833 -1.310352 -5.398672
  H 3.229592 -2.526519 -5.440422
  H 6.656591 -1.507308 -0.763406
 26
 28.842059
  C 1.085172 -0.138617 0.923223
  C 2.418424 -0.134400 0.292279
  C 3.193662 1.152996 0.420235
  H 2.508249 1.859416 0.929464
  C 2.997846 -1.157247 -0.421074
  C 4.279739 -0.914896 -0.914788
  C 5.138971 -1.391557 -1.902894
  C 4.755943 -1.524987 -3.332244
  C 3.289273 -1.245567 -3.644161
  C 3.006721 -1.428490 -5.129771
  O 6.403719 -1.609120 -1.671638
  H 0.789016 0.847205 1.261782
  H 1.071935 -0.817735 1.782181
  H 0.330397 -0.510773 0.227213
  H 3.330675 1.697474 -0.507576
  H 3.944572 1.148265 1.207835
  H 2.503154 -2.107653 -0.556734
  H 4.564471 0.081971 -0.439304
  H 5.033285 -2.529467 -3.673786
  H 5.389703 -0.827825 -3.882901
  H 3.023579 -0.230593 -3.343669
  H 2.653208 -1.924912 -3.080697
  H 3.602468 -0.743057 -5.728060
  H 1.961356 -1.229768 -5.340810
  H 3.227661 -2.448074 -5.446131
  H 6.654365 -1.565747 -0.727493
 26
 63.110693
  C 1.163350 -0.071039 1.152469
  C 2.402213 -0.182337 0.334427
  C 3.214689 1.073377 0.079560
  H 2.589000 1.892543 0.503725
  C 2.890782 -1.313994 -0.276420
  C 4.105836 -1.171430 -0.918375
  C 5.021453 -1.484583 -1.845667
  C 4.752096 -1.478368 -3.315172
  C 3.301411 -1.260684 -3.688089
  C 3.136349 -1.268130 -5.195668
  O 6.294425 -1.718096 -1.566374
  H 0.916011 0.953116 1.387108
  H 1.275488 -0.617409 2.084958
  H 0.308713 -0.528316 0.637268
  H 3.218962 1.438649 -0.944128
  H 4.006996 1.272229 0.820876
  H 2.383448 -2.266672 -0.210929
  H 4.336363 0.129160 -0.309759
  H 5.085041 -2.441505 -3.695714
  H 5.386068 -0.714760 -3.772187
  H 2.964534 -0.302848 -3.300628
  H 2.685383 -2.034182 -3.263611
  H 3.705737 -0.449973 -5.639325
  H 2.098520 -1.144223 -5.472315
  H 3.492351 -2.196593 -5.625330
  H 6.468941 -1.793433 -0.617033
 26
 68.830004
  C 1.205251 -0.104274 1.213441
  C 2.405303 -0.112136 0.337023
  C 3.221390 1.145850 0.113858
  H 2.653959 1.999780 0.545052
  C 2.878895 -1.273178 -0.253555
  C 4.015007 -1.316346 -0.980983
  C 4.943798 -1.625262 -1.843146
  C 4.757239 -1.551066 -3.342915
  C 3.326224 -1.258781 -3.776409
  C 3.205552 -1.251476 -5.294306
  O 6.245496 -1.912668 -1.514619
  H 0.870614 0.900442 1.447520
  H 1.411467 -0.617803 2.155469
  H 0.378661 -0.638169 0.751314
  H 3.155225 1.543554 -0.922867
  H 3.972287 1.390814 0.921925
  H 2.340873 -2.197395 -0.094221
  H 4.205723 0.659462 -0.234127
  H 5.086239 -2.508747 -3.752264
  H 5.438548 -0.789240 -3.736241
  H 3.011658 -0.289327 -3.387465
  H 2.661380 -2.017942 -3.365176
  H 3.853434 -0.495969 -5.729120
  H 2.181679 -1.039406 -5.596357
  H 3.488196 -2.221569 -5.708922
  H 6.341497 -2.076944 -0.565981
 26
 69.878055
  C 1.257853 -0.137696 1.275438
  C 2.425694 -0.130294 0.354998
  C 3.164618 1.157260 0.053976
  H 2.503063 2.001531 0.352019
  C 2.887467 -1.308956 -0.219331
  C 3.974915 -1.403342 -1.006835
  C 4.919488 -1.667502 -1.859900
  C 4.757539 -1.557155 -3.358047
  C 3.332028 -1.248773 -3.802947
  C 3.236125 -1.167197 -5.320966
  O 6.220386 -1.974900 -1.519054
  H 0.943006 0.860868 1.553481
  H 1.489027 -0.686317 2.189817
  H 0.407279 -0.648077 0.825416
  H 3.227294 1.374048 -1.026208
  H 3.818273 1.615395 0.894041
  H 2.341864 -2.222534 -0.007243
  H 4.251734 0.783951 0.056200
  H 5.087364 -2.507124 -3.786948
  H 5.446257 -0.790195 -3.720692
  H 3.007119 -0.301467 -3.373644
  H 2.662871 -2.028260 -3.437934
  H 3.884455 -0.383679 -5.706540
  H 2.216002 -0.950717 -5.629597
  H 3.535499 -2.109149 -5.777191
  H 6.295303 -2.174505 -0.576035
 26
 74.257497
  C 1.295257 -0.173082 1.315215
  C 2.444188 -0.168056 0.373975
  C 3.118651 1.171043 -0.016687
  H 2.326455 1.912278 0.169961
  C 2.908216 -1.334876 -0.216630
  C 3.999489 -1.421900 -1.004819
  C 4.934109 -1.689310 -1.866656
  C 4.762585 -1.540780 -3.359996
  C 3.341757 -1.194914 -3.787271
  C 3.239454 -1.073219 -5.303777
  O 6.223024 -2.036118 -1.545505
  H 1.011042 0.822718 1.632698
  H 1.524518 -0.761206 2.205828
  H 0.426990 -0.643104 0.858269
  H 3.346794 1.163357 -1.082957
  H 3.849712 1.883838 0.550562
  H 2.351552 -2.247452 -0.021199
  H 4.037304 0.688324 0.510702
  H 5.069945 -2.487156 -3.813900
  H 5.464601 -0.779398 -3.708390
  H 3.036824 -0.251523 -3.332233
  H 2.659378 -1.971915 -3.437758
  H 3.900568 -0.291110 -5.672682
  H 2.222255 -0.831310 -5.601004
  H 3.518477 -2.005730 -5.784717
  H 6.308612 -2.238576 -0.601273
 26
 73.556742
  C 1.367439 -0.180773 1.359386
  C 2.488203 -0.182897 0.391250
  C 3.123850 1.248438 -0.031425
  H 2.266028 1.901915 0.169181
  C 2.915410 -1.360019 -0.232025
  C 3.989454 -1.471306 -1.027059
  C 4.940892 -1.718028 -1.877579
  C 4.774246 -1.550222 -3.370469
  C 3.350146 -1.211428 -3.802988
  C 3.257913 -1.064457 -5.317507
  O 6.228958 -2.055276 -1.545405
  H 1.101979 0.817596 1.696440
  H 1.603431 -0.781980 2.238265
  H 0.485240 -0.635683 0.906411
  H 3.331737 1.233042 -1.099722
  H 3.866602 1.914106 0.486788
  H 2.330408 -2.250453 -0.036633
  H 3.754116 0.456870 0.571654
  H 5.094442 -2.486853 -3.834359
  H 5.471532 -0.775432 -3.703214
  H 3.031900 -0.279164 -3.333716
  H 2.673636 -2.000996 -3.473665
  H 3.912573 -0.269176 -5.668420
  H 2.237655 -0.826885 -5.618394
  H 3.552290 -1.991255 -5.814488
  H 6.309727 -2.269695 -0.606069
 26
 61.680602
  C 1.473368 -0.146528 1.443665
  C 2.570244 -0.163556 0.439121
  C 2.963227 1.254158 -0.212275
  H 2.052251 1.847841 -0.097075
  C 2.962040 -1.386192 -0.199239
  C 4.002931 -1.503584 -1.021272
  C 4.952472 -1.762412 -1.875242
  C 4.779653 -1.544308 -3.360298
  C 3.372298 -1.134766 -3.779334
  C 3.290542 -0.943491 -5.289031
  O 6.211107 -2.163225 -1.559795
  H 1.219624 0.859283 1.760073
  H 1.741742 -0.726686 2.327548
  H 0.580813 -0.615269 1.029905
  H 3.174060 1.112737 -1.267981
  H 3.710982 1.920357 0.232855
  H 2.377536 -2.268866 0.038255
  H 3.596900 0.291720 0.704870
  H 5.059704 -2.480592 -3.849072
  H 5.506720 -0.790785 -3.672844
  H 3.094798 -0.201707 -3.287549
  H 2.660930 -1.902668 -3.471690
  H 3.979210 -0.168586 -5.617755
  H 2.285094 -0.654301 -5.583372
  H 3.544002 -1.864947 -5.808294
  H 6.296295 -2.398189 -0.623907
 26
 43.261394
  C 1.562089 -0.124265 1.528522
  C 2.667948 -0.101107 0.511652
  C 2.717274 1.228466 -0.341155
  H 1.749364 1.724736 -0.245670
  C 3.058718 -1.361547 -0.173782
  C 4.047876 -1.509747 -0.993237
  C 4.981307 -1.825713 -1.904501
  C 4.784602 -1.572261 -3.365784
  C 3.407298 -1.039493 -3.753513
  C 3.318897 -0.826553 -5.260594
  O 6.171949 -2.327114 -1.605226
  H 1.294304 0.881845 1.833672
  H 1.851736 -0.692992 2.414167
  H 0.670895 -0.602392 1.117526
  H 2.875573 1.010319 -1.393723
  H 3.448390 1.962316 -0.009166
  H 2.471930 -2.236291 0.109016
  H 3.656086 0.243737 0.886448
  H 4.977258 -2.525002 -3.869922
  H 5.566253 -0.882295 -3.701827
  H 3.219032 -0.089876 -3.251174
  H 2.635791 -1.747246 -3.441678
  H 4.065233 -0.107808 -5.595255
  H 2.336372 -0.448691 -5.534823
  H 3.483695 -1.761307 -5.792718
  H 6.277766 -2.567924 -0.666728
 26
 29.599759
  C 1.653215 -0.160534 1.595202
  C 2.791797 -0.000628 0.607888
  C 2.627526 1.240037 -0.289410
  H 1.616498 1.631901 -0.209158
  C 3.077179 -1.254460 -0.199701
  C 4.025312 -1.454713 -1.031376
  C 4.967418 -1.801531 -1.951383
  C 4.764400 -1.569673 -3.402844
  C 3.395895 -1.028834 -3.803431
  C 3.323626 -0.817790 -5.311730
  O 6.119475 -2.330634 -1.622621
  H 1.405301 0.803576 2.030968
  H 1.922331 -0.837433 2.402272
  H 0.760547 -0.542434 1.104927
  H 2.808001 1.010750 -1.334633
  H 3.311971 2.026331 0.013008
  H 2.398165 -2.072847 0.033294
  H 3.736388 0.157311 1.140806
  H 4.962312 -2.517319 -3.915405
  H 5.552191 -0.889033 -3.745690
  H 3.207260 -0.079135 -3.302346
  H 2.617198 -1.730664 -3.502919
  H 4.072788 -0.101695 -5.640351
  H 2.346206 -0.437151 -5.595153
  H 3.487722 -1.751966 -5.843328
  H 6.245918 -2.510513 -0.670953
 26
 28.796527
  C 1.550069 -0.215078 1.486854
  C 2.829825 -0.008068 0.697007
  C 2.840139 1.340170 -0.043264
  H 1.838464 1.754741 -0.076791
  C 3.052608 -1.139696 -0.299053
  C 4.061166 -1.329189 -1.060140
  C 5.014842 -1.647784 -1.981206
  C 4.746977 -1.502803 -3.438027
  C 3.314887 -1.149984 -3.822707
  C 3.197884 -0.962159 -5.330550
  O 6.207110 -2.074253 -1.670907
  H 1.354250 0.665074 2.096733
  H 1.631511 -1.070305 2.154047
  H 0.699864 -0.360510 0.826380
  H 3.195027 1.247336 -1.066318
  H 3.486638 2.043931 0.474633
  H 2.261202 -1.886082 -0.274066
  H 3.683525 -0.061969 1.374570
  H 5.058252 -2.428335 -3.929192
  H 5.432565 -0.733425 -3.813059
  H 3.005440 -0.231321 -3.322986
  H 2.640600 -1.948449 -3.510208
  H 3.837555 -0.152347 -5.673230
  H 2.174247 -0.720917 -5.603382
  H 3.482013 -1.869352 -5.858043
  H 6.391474 -2.160359 -0.719648
