 20
 0.000000
  H 1.509339 0.170412 0.475144
  C 2.590263 0.157522 0.443118
  C 3.314917 0.631579 1.622317
  C 2.429524 1.094634 2.773947
  C 3.264550 1.570235 3.958572
  C 3.175056 -0.308762 -0.716622
  C 4.553200 -0.399904 -0.944003
  C 5.084645 -0.874587 -2.126350
  H 4.475857 -1.209899 -2.959677
  O 6.349013 -0.975431 -2.379155
  H 3.982891 1.452786 1.331232
  H 3.982540 -0.162908 1.980641
  H 1.785146 0.274489 3.096058
  H 1.785741 1.910049 2.438888
  H 3.897538 0.770624 4.336197
  H 2.618516 1.896292 4.769613
  H 3.898221 2.408430 3.678232
  H 2.517160 -0.628879 -1.513130
  H 5.233409 -0.086480 -0.163601
  H 6.940345 -0.682409 -1.653464
 20
 16.360569
  H 1.493552 0.182109 0.503959
  C 2.574325 0.168423 0.470266
  C 3.298101 0.642249 1.649029
  C 2.411210 1.105104 2.799733
  C 3.244242 1.580924 3.985303
  C 3.156911 -0.298278 -0.690225
  C 4.525381 -0.388316 -0.914870
  C 5.096827 -0.910036 -2.214179
  H 4.486799 -1.242218 -3.039176
  O 6.486451 -1.021310 -2.494033
  H 3.966638 1.463136 1.358550
  H 3.966030 -0.151744 2.007675
  H 1.766539 0.284938 3.121075
  H 1.767441 1.920213 2.464010
  H 3.876954 0.781521 4.363821
  H 2.597040 1.906756 4.795452
  H 3.877957 2.419356 3.705844
  H 2.498839 -0.618416 -1.486762
  H 5.209971 -0.077228 -0.140649
  H 7.070460 -0.728572 -1.770101
 20
 49.654960
  H 1.518574 0.185517 0.510387
  C 2.599733 0.173360 0.482508
  C 3.298145 0.650547 1.670580
  C 2.395443 1.109414 2.808845
  C 3.210853 1.588432 4.004672
  C 3.176425 -0.286873 -0.660446
  C 4.535531 -0.361542 -0.846725
  C 5.057005 -0.950759 -2.312808
  H 4.428998 -1.282504 -3.133684
  O 6.560085 -1.055604 -2.582328
  H 3.983057 1.466511 1.397620
  H 3.981038 -0.128863 2.039060
  H 1.748736 0.287489 3.122101
  H 1.751493 1.921425 2.465539
  H 3.840406 0.791565 4.393482
  H 2.551021 1.911584 4.806148
  H 3.843406 2.430855 3.734923
  H 2.528066 -0.606451 -1.455773
  H 5.292123 -0.075969 -0.137288
  H 7.044024 -0.734198 -1.794114
 20
 89.470644
  H 1.512095 0.197944 0.541786
  C 2.596109 0.188336 0.520145
  C 3.286423 0.667967 1.714388
  C 2.369495 1.124571 2.846870
  C 3.173438 1.606738 4.049965
  C 3.190091 -0.280571 -0.644778
  C 4.533583 -0.350902 -0.820173
  C 5.062817 -1.002055 -2.441160
  H 4.452094 -1.331912 -3.258045
  O 6.667687 -1.104465 -2.704756
  H 3.969895 1.487356 1.444268
  H 3.968155 -0.111667 2.087186
  H 1.723462 0.301019 3.155348
  H 1.726264 1.934426 2.498865
  H 3.802997 0.812269 4.443572
  H 2.506656 1.927964 4.846199
  H 3.805928 2.450649 3.785032
  H 2.540771 -0.601440 -1.443437
  H 5.334015 -0.085931 -0.161378
  H 7.082917 -0.776411 -1.897967
 20
 129.768305
  H 1.501117 0.211603 0.576301
  C 2.584154 0.203180 0.558079
  C 3.265513 0.680725 1.746837
  C 2.347029 1.135555 2.874103
  C 3.148389 1.618353 4.078172
  C 3.184737 -0.267946 -0.612191
  C 4.518395 -0.335528 -0.780131
  C 5.069094 -1.042832 -2.543962
  H 4.460395 -1.374105 -3.366437
  O 6.780986 -1.148612 -2.816586
  H 3.948709 1.498502 1.479085
  H 3.946873 -0.096079 2.120507
  H 1.701153 0.311369 3.181329
  H 1.704076 1.944968 2.524399
  H 3.777787 0.824462 4.473127
  H 2.480056 1.939273 4.873014
  H 3.780855 2.462644 3.814242
  H 2.535935 -0.589379 -1.413097
  H 5.341041 -0.080078 -0.143830
  H 7.172677 -0.815147 -1.994011
 20
 132.549787
  H 1.560560 0.185852 0.636749
  C 2.637869 0.217986 0.694371
  C 3.254704 0.736047 1.910267
  C 2.245686 1.159270 2.974817
  C 2.954309 1.711674 4.215148
  C 3.356697 -0.208222 -0.436269
  C 4.668333 -0.240934 -0.561552
  C 5.320915 -1.199435 -2.986395
  H 4.622392 -1.381785 -3.811905
  O 6.550714 -1.348815 -3.338488
  H 3.903890 1.583603 1.670894
  H 3.930206 -0.025030 2.328005
  H 1.624927 0.293293 3.263620
  H 1.580841 1.922639 2.568182
  H 3.599744 0.963350 4.655248
  H 2.227782 2.012339 4.966278
  H 3.560783 2.584705 3.961905
  H 2.751879 -0.493553 -1.289588
  H 5.605512 -0.151669 -0.076749
  H 7.220481 -1.207271 -2.633454
 20
 139.802570
  H 1.577710 0.201124 0.684758
  C 2.654455 0.229430 0.766964
  C 3.230426 0.762238 1.993078
  C 2.199040 1.179100 3.027163
  C 2.873917 1.745185 4.268959
  C 3.400574 -0.186364 -0.353832
  C 4.705611 -0.211778 -0.486219
  C 5.387587 -1.265283 -3.176238
  H 4.676297 -1.414820 -3.995421
  O 6.573914 -1.450778 -3.582956
  H 3.879969 1.617535 1.767450
  H 3.918613 0.003817 2.424092
  H 1.589856 0.321557 3.310506
  H 1.546668 1.925073 2.608399
  H 3.514454 1.007558 4.729718
  H 2.137415 2.042887 4.995979
  H 3.468775 2.613196 4.025956
  H 2.803999 -0.459323 -1.240561
  H 5.684593 -0.175937 -0.016396
  H 7.276344 -1.317297 -2.907962
 20
 143.462081
  H 1.604682 0.210853 0.703024
  C 2.678717 0.235239 0.825294
  C 3.216333 0.784033 2.061142
  C 2.150756 1.201355 3.075084
  C 2.791271 1.779339 4.333144
  C 3.469400 -0.175689 -0.267186
  C 4.770836 -0.202417 -0.387422
  C 5.434358 -1.311991 -3.336956
  H 4.674858 -1.444369 -4.118423
  O 6.590741 -1.531256 -3.829979
  H 3.863511 1.638540 1.849408
  H 3.899345 0.041934 2.506320
  H 1.533808 0.329593 3.351737
  H 1.489283 1.957154 2.629394
  H 3.429303 1.049041 4.816070
  H 2.029710 2.074771 5.042959
  H 3.384930 2.651279 4.101778
  H 2.909537 -0.428263 -1.167408
  H 5.761392 -0.191548 0.011837
  H 7.322586 -1.428878 -3.189381
 20
 144.746460
  H 1.674727 0.180920 0.710675
  C 2.739467 0.220283 0.896655
  C 3.210713 0.807252 2.139256
  C 2.097908 1.213190 3.102098
  C 2.674108 1.836047 4.366964
  C 3.604821 -0.183778 -0.143628
  C 4.898507 -0.260100 -0.209320
  C 5.417097 -1.310737 -3.485265
  H 4.611580 -1.329885 -4.241369
  O 6.519150 -1.579946 -4.073166
  H 3.847359 1.678829 1.933127
  H 3.897866 0.091900 2.624897
  H 1.505745 0.340212 3.371182
  H 1.439489 1.928836 2.624547
  H 3.316635 1.135758 4.886694
  H 1.877583 2.123178 5.042369
  H 3.252130 2.724800 4.133843
  H 3.088823 -0.392539 -1.087633
  H 5.909449 -0.332014 0.096524
  H 7.297258 -1.561716 -3.475898
 20
 144.655134
  H 1.805300 0.140987 0.692755
  C 2.852088 0.192233 0.960279
  C 3.232804 0.826216 2.215371
  C 2.050440 1.227161 3.093223
  C 2.528144 1.900634 4.381152
  C 3.809844 -0.215173 0.007406
  C 5.088655 -0.361329 0.008695
  C 5.321784 -1.260883 -3.609575
  H 4.470479 -1.173830 -4.312014
  O 6.359436 -1.574367 -4.293374
  H 3.856386 1.704010 2.027407
  H 3.906082 0.140160 2.758637
  H 1.462154 0.341384 3.346704
  H 1.404172 1.911969 2.552920
  H 3.159028 1.227691 4.963847
  H 1.678616 2.182507 4.998661
  H 3.095582 2.799041 4.161963
  H 3.365441 -0.386644 -0.982197
  H 6.123940 -0.501028 0.196558
  H 7.161097 -1.672572 -3.739122
 20
 144.006531
  H 1.914216 0.091720 0.700079
  C 2.939501 0.143629 1.032950
  C 3.250665 0.836263 2.278511
  C 2.019664 1.248894 3.081993
  C 2.420287 1.948146 4.376543
  C 3.959757 -0.275395 0.157743
  C 5.227182 -0.475610 0.199490
  C 5.207798 -1.229014 -3.723564
  H 4.341849 -1.073733 -4.401222
  O 6.223527 -1.512461 -4.462268
  H 3.873605 1.719858 2.089245
  H 3.905365 0.184873 2.877903
  H 1.421938 0.366850 3.318750
  H 1.397827 1.920954 2.489113
  H 3.027832 1.294753 4.999528
  H 1.535877 2.228122 4.945157
  H 2.991039 2.852643 4.170849
  H 3.590010 -0.375941 -0.878442
  H 6.258675 -0.680940 0.332951
  H 7.047866 -1.629820 -3.938979
 20
 144.701820
  H 2.036694 0.296376 0.648003
  C 3.039005 0.335720 1.064016
  C 3.246418 0.941822 2.375823
  C 1.960256 1.290736 3.126417
  C 2.273797 1.890399 4.485299
  C 4.118300 -0.084736 0.282179
  C 5.308918 -0.547735 0.483943
  C 5.226682 -1.320056 -3.961105
  H 4.365961 -1.013477 -4.604022
  O 6.149990 -1.779230 -4.718000
  H 3.864346 1.842195 2.276408
  H 3.862200 0.261302 2.960135
  H 1.357464 0.395064 3.259679
  H 1.367302 2.006461 2.545219
  H 2.820255 1.186105 5.104828
  H 1.354799 2.151162 5.006347
  H 2.875186 2.800630 4.382667
  H 3.885314 -0.092536 -0.803556
  H 6.313965 -0.715049 0.162265
  H 6.938896 -2.092656 -4.223474
 20
 143.060180
  H 2.092554 0.292813 0.611375
  C 3.076899 0.321553 1.051167
  C 3.260150 0.939433 2.359190
  C 1.964543 1.274619 3.090074
  C 2.251915 1.896261 4.452642
  C 4.175133 -0.110403 0.301355
  C 5.357315 -0.586700 0.530194
  C 5.165580 -1.269593 -3.893785
  H 4.305539 -0.941042 -4.511720
  O 6.060516 -1.753002 -4.673747
  H 3.865377 1.851637 2.262997
  H 3.898297 0.269927 2.957123
  H 1.374714 0.366185 3.226185
  H 1.372176 1.971773 2.495513
  H 2.807151 1.206717 5.085140
  H 1.322670 2.142712 4.960334
  H 2.832593 2.811373 4.349711
  H 3.975460 -0.096371 -0.788654
  H 6.346287 -0.765408 0.185211
  H 6.860877 -2.069988 -4.197232
