 32
 0.000000
  C 0.971295 0.138670 0.397107
  C 2.449192 0.137931 0.394590
  C 3.235531 0.607709 1.563175
  C 2.458783 1.097654 2.782664
  C 3.408473 1.542867 3.890157
  C 3.064128 -0.325974 -0.760267
  C 4.443809 -0.411383 -0.973421
  C 5.121105 -0.862388 -2.097901
  C 4.624049 -1.385480 -3.402263
  C 3.132878 -1.503140 -3.696540
  C 2.906825 -2.064904 -5.097384
  O 6.446987 -0.858854 -2.089278
  H 0.535803 0.508833 1.318339
  H 0.600068 -0.873827 0.231408
  H 0.599672 0.754766 -0.423105
  H 3.891403 1.419890 1.229297
  H 3.891713 -0.209425 1.884089
  H 1.820837 0.300684 3.170019
  H 1.820581 1.940882 2.510902
  H 4.044564 0.721261 4.213483
  H 2.843061 1.889238 4.752367
  H 4.044282 2.359921 3.554946
  H 2.406174 -0.643694 -1.551139
  H 5.058130 -0.077641 -0.141777
  H 5.079219 -2.374632 -3.528483
  H 5.079630 -0.757954 -4.176997
  H 2.657804 -0.522545 -3.642832
  H 2.657374 -2.174659 -2.980221
  H 3.344702 -1.417655 -5.854232
  H 1.841151 -2.145462 -5.298957
  H 3.344286 -3.055949 -5.197183
  H 6.807211 -0.521489 -1.247443
 32
 1.208314
  C 0.942945 0.358628 0.336204
  C 2.415695 0.280102 0.344071
  C 3.211250 0.610156 1.549471
  C 2.451446 1.021102 2.807879
  C 3.425918 1.332778 3.940377
  C 3.027388 -0.126203 -0.838482
  C 4.401437 -0.265250 -1.021295
  C 5.097437 -0.741870 -2.126976
  C 4.615072 -1.362412 -3.389454
  C 3.129224 -1.572589 -3.649297
  C 2.931780 -2.272153 -4.991685
  O 6.418759 -0.761147 -2.077064
  H 0.523575 0.656120 1.288919
  H 0.521254 -0.605032 0.046434
  H 0.616302 1.063333 -0.430617
  H 3.906506 1.417356 1.291594
  H 3.839258 -0.253509 1.795820
  H 1.788056 0.216334 3.128976
  H 1.848305 1.909565 2.612697
  H 4.040255 0.466298 4.175477
  H 2.883759 1.613208 4.840094
  H 4.082162 2.158328 3.673462
  H 2.371506 -0.344596 -1.663070
  H 5.048063 0.018669 -0.200899
  H 5.128813 -2.328137 -3.464385
  H 5.037491 -0.760754 -4.202573
  H 2.611478 -0.614194 -3.685319
  H 2.693582 -2.193515 -2.865889
  H 3.342658 -1.677796 -5.804212
  H 1.873587 -2.424641 -5.187067
  H 3.419521 -3.244521 -4.999798
  H 6.841179 -0.117784 -1.480754
 32
 6.739726
  C 0.919451 0.365228 0.355507
  C 2.391858 0.284149 0.350699
  C 3.200052 0.592740 1.552698
  C 2.454451 0.995329 2.821508
  C 3.441758 1.308718 3.941581
  C 2.997472 -0.101261 -0.843585
  C 4.369439 -0.255955 -1.028402
  C 5.086624 -0.749167 -2.114882
  C 4.639380 -1.401628 -3.373811
  C 3.152406 -1.573756 -3.659774
  C 2.956275 -2.293937 -4.990983
  O 6.409817 -0.763242 -1.999018
  H 0.508955 0.655638 1.314558
  H 0.494801 -0.596444 0.063846
  H 0.586935 1.074730 -0.403632
  H 3.900097 1.395716 1.296938
  H 3.821890 -0.280653 1.779275
  H 1.796834 0.188184 3.147443
  H 1.847621 1.883553 2.637110
  H 4.060213 0.443413 4.168477
  H 2.910493 1.586317 4.848428
  H 4.093392 2.134975 3.666179
  H 2.342821 -0.289115 -1.677207
  H 5.062594 0.040661 -0.257689
  H 5.127503 -2.382270 -3.405762
  H 5.098802 -0.831356 -4.188799
  H 2.667441 -0.599397 -3.721281
  H 2.684812 -2.163190 -2.870549
  H 3.402478 -1.730580 -5.807346
  H 1.897591 -2.415814 -5.204132
  H 3.411572 -3.281051 -4.969591
  H 6.957549 -0.014755 -1.714075
 32
 19.945131
  C 0.869810 0.334629 0.396987
  C 2.341739 0.292977 0.355486
  C 3.180523 0.602665 1.538396
  C 2.462557 0.992033 2.826591
  C 3.476467 1.308935 3.922287
  C 2.936280 -0.072242 -0.846458
  C 4.295453 -0.235775 -1.038989
  C 5.042467 -0.732095 -2.113818
  C 4.687296 -1.400801 -3.389775
  C 3.198088 -1.556722 -3.688072
  C 2.976399 -2.293830 -5.001753
  O 6.335224 -0.684974 -1.882226
  H 0.480527 0.607468 1.369622
  H 0.461296 -0.634912 0.113394
  H 0.501958 1.044837 -0.343887
  H 3.850968 1.426029 1.262564
  H 3.828035 -0.256525 1.731669
  H 1.845426 0.163432 3.178963
  H 1.824760 1.862599 2.661303
  H 4.133796 0.464499 4.114178
  H 2.966734 1.558714 4.849609
  H 4.086729 2.163991 3.636960
  H 2.279507 -0.249604 -1.682255
  H 5.105107 0.011235 -0.358133
  H 5.148438 -2.392762 -3.372830
  H 5.173355 -0.834529 -4.189668
  H 2.724236 -0.575477 -3.743299
  H 2.725937 -2.115286 -2.878590
  H 3.431128 -1.754849 -5.830445
  H 1.915203 -2.407472 -5.208092
  H 3.405163 -3.293187 -4.977120
  H 7.110061 -0.133669 -1.740157
 32
 34.533082
  C 0.844398 0.445485 0.376810
  C 2.319673 0.383787 0.317016
  C 3.177809 0.643911 1.504426
  C 2.477972 0.899687 2.832525
  C 3.499439 1.148303 3.935888
  C 2.903804 0.055941 -0.898875
  C 4.254060 -0.114243 -1.100588
  C 5.029314 -0.613677 -2.161368
  C 4.718970 -1.396594 -3.390762
  C 3.228501 -1.629197 -3.649359
  C 2.997632 -2.436068 -4.919326
  O 6.299942 -0.459289 -1.894921
  H 0.469917 0.689800 1.365586
  H 0.415118 -0.501630 0.051555
  H 0.480504 1.198823 -0.323594
  H 3.854813 1.472717 1.284578
  H 3.806965 -0.244244 1.632420
  H 1.825606 0.069849 3.109962
  H 1.860214 1.802042 2.751367
  H 4.151096 0.284624 4.065454
  H 2.999038 1.332995 4.883122
  H 4.119306 2.011502 3.699557
  H 2.262103 -0.029884 -1.757340
  H 5.143649 0.134414 -0.503323
  H 5.251572 -2.349751 -3.356596
  H 5.124961 -0.829973 -4.232937
  H 2.710529 -0.672308 -3.726931
  H 2.774746 -2.146650 -2.803067
  H 3.419146 -1.925508 -5.785049
  H 1.936746 -2.583211 -5.091161
  H 3.473899 -3.409797 -4.846993
  H 7.133353 -0.047017 -1.755549
 32
 70.124436
  C 0.767398 0.489231 0.486508
  C 2.237072 0.391386 0.355697
  C 3.150539 0.612973 1.505806
  C 2.521716 0.904423 2.865035
  C 3.606006 1.122004 3.916357
  C 2.760652 0.088748 -0.887667
  C 4.108092 -0.091761 -1.149185
  C 4.902116 -0.603950 -2.163057
  C 4.717265 -1.385502 -3.403119
  C 3.250314 -1.667695 -3.729819
  C 3.139040 -2.484233 -5.013016
  O 6.175302 -0.359636 -1.800452
  H 0.445920 0.716006 1.495407
  H 0.305533 -0.449089 0.177333
  H 0.384449 1.253647 -0.190705
  H 3.837529 1.426471 1.257924
  H 3.773890 -0.282860 1.597652
  H 1.887534 0.072647 3.177625
  H 1.907170 1.805022 2.810813
  H 4.235034 0.241244 4.018919
  H 3.157336 1.335595 4.883588
  H 4.234110 1.969330 3.650497
  H 2.068283 0.013226 -1.719819
  H 5.318846 0.120339 -0.687044
  H 5.261615 -2.330154 -3.313139
  H 5.183801 -0.829882 -4.223238
  H 2.713382 -0.727610 -3.852090
  H 2.805592 -2.234504 -2.911074
  H 3.565693 -1.944425 -5.855177
  H 2.095477 -2.686134 -5.242339
  H 3.651731 -3.438021 -4.913963
  H 7.000030 0.106318 -1.611943
 32
 85.062124
  C 0.717685 0.571131 0.518568
  C 2.185167 0.445989 0.335458
  C 3.143006 0.598370 1.470586
  C 2.556762 0.836904 2.858124
  C 3.671645 0.985003 3.888256
  C 2.664209 0.186196 -0.919798
  C 4.007263 -0.018223 -1.240427
  C 4.797453 -0.508321 -2.169052
  C 4.709401 -1.364298 -3.371136
  C 3.269693 -1.724997 -3.733492
  C 3.226333 -2.597055 -4.983144
  O 6.160844 -0.185089 -1.747726
  H 0.437372 0.763436 1.546027
  H 0.221220 -0.340702 0.185878
  H 0.333164 1.379191 -0.103079
  H 3.822990 1.423423 1.243540
  H 3.754490 -0.309517 1.501592
  H 1.915396 0.003602 3.148821
  H 1.957650 1.749427 2.862642
  H 4.283556 0.087175 3.929217
  H 3.253467 1.151847 4.877662
  H 4.311813 1.830077 3.646494
  H 1.950620 0.189695 -1.742420
  H 5.490619 0.202885 -0.816273
  H 5.295648 -2.276220 -3.219656
  H 5.171801 -0.819391 -4.201971
  H 2.698316 -0.813348 -3.911894
  H 2.807159 -2.259561 -2.902580
  H 3.667915 -2.080207 -5.832561
  H 2.199752 -2.847829 -5.236228
  H 3.772375 -3.524861 -4.826178
  H 6.946661 0.381760 -1.618308
 32
 78.818129
  C 0.638775 0.598097 0.610820
  C 2.098519 0.453479 0.366109
  C 3.106973 0.595338 1.463718
  C 2.579978 0.849172 2.873280
  C 3.737205 0.982287 3.858542
  C 2.523735 0.187875 -0.903083
  C 3.838441 -0.033086 -1.282911
  C 4.644490 -0.502711 -2.167728
  C 4.673418 -1.346837 -3.368547
  C 3.266735 -1.763752 -3.799966
  C 3.322744 -2.628543 -5.052993
  O 6.120188 -0.118247 -1.673720
  H 0.401906 0.795176 1.649001
  H 0.118952 -0.306997 0.296971
  H 0.238071 1.408184 0.001637
  H 3.788292 1.410602 1.205102
  H 3.705148 -0.322185 1.475549
  H 1.936427 0.027332 3.192194
  H 1.996617 1.771752 2.896821
  H 4.334606 0.073620 3.880436
  H 3.360945 1.161250 4.862929
  H 4.381995 1.815049 3.587145
  H 1.781516 0.191099 -1.698954
  H 5.584378 0.185893 -0.863396
  H 5.287908 -2.233694 -3.189134
  H 5.153122 -0.777631 -4.170612
  H 2.667194 -0.874876 -4.000510
  H 2.788047 -2.321809 -2.994082
  H 3.782964 -2.088369 -5.877191
  H 2.320774 -2.920119 -5.356821
  H 3.898831 -3.533337 -4.873090
  H 6.951630 0.379334 -1.485638
 32
 65.881099
  C 0.564017 0.706860 0.789261
  C 1.982475 0.505363 0.433096
  C 3.077696 0.589551 1.434926
  C 2.686148 0.839651 2.888096
  C 3.929696 0.906608 3.770341
  C 2.295100 0.234147 -0.879638
  C 3.549113 -0.047109 -1.372234
  C 4.345748 -0.509744 -2.215364
  C 4.615551 -1.328588 -3.367138
  C 3.309284 -1.888247 -3.949391
  C 3.600114 -2.739333 -5.178073
  O 6.088956 0.054380 -1.525026
  H 0.419247 0.902504 1.844637
  H -0.016786 -0.172916 0.510313
  H 0.151456 1.541502 0.221370
  H 3.772394 1.377259 1.128475
  H 3.634260 -0.353898 1.380199
  H 2.039714 0.038258 3.249583
  H 2.146478 1.784182 2.977358
  H 4.489226 -0.025042 3.724724
  H 3.649642 1.079227 4.806488
  H 4.583117 1.718427 3.458910
  H 1.502241 0.284907 -1.617895
  H 5.480667 0.292202 -0.798014
  H 5.295791 -2.144732 -3.108955
  H 5.118572 -0.710477 -4.116450
  H 2.648544 -1.065341 -4.224605
  H 2.803532 -2.492113 -3.195513
  H 4.092618 -2.152744 -5.950024
  H 2.674218 -3.132773 -5.589488
  H 4.242871 -3.579158 -4.924713
  H 6.884779 0.562860 -1.276208
 32
 54.001928
  C 0.483711 0.778324 1.020565
  C 1.847670 0.502110 0.545517
  C 3.034214 0.573495 1.427925
  C 2.804729 0.904216 2.898596
  C 4.131404 0.940335 3.651954
  C 2.018501 0.169420 -0.790035
  C 3.200173 -0.185252 -1.396953
  C 3.997375 -0.644127 -2.219367
  C 4.514283 -1.353569 -3.341453
  C 3.377197 -1.952487 -4.181791
  C 3.942144 -2.681773 -5.393685
  O 5.916567 -0.016134 -1.335588
  H 0.442895 1.018613 2.075966
  H -0.158091 -0.082274 0.824668
  H 0.053122 1.606059 0.454223
  H 3.726707 1.313808 1.012348
  H 3.548888 -0.392992 1.358522
  H 2.157343 0.155908 3.358579
  H 2.325420 1.880180 2.994575
  H 4.634933 -0.022387 3.600833
  H 3.964657 1.176221 4.699870
  H 4.792785 1.698588 3.239023
  H 1.154636 0.188338 -1.444013
  H 5.248808 0.211866 -0.676484
  H 5.214088 -2.128963 -3.018802
  H 5.084294 -0.645258 -3.951960
  H 2.704774 -1.159999 -4.512511
  H 2.804093 -2.649117 -3.569044
  H 4.507117 -2.003613 -6.028744
  H 3.135029 -3.106496 -5.985183
  H 4.599800 -3.491842 -5.087183
  H 6.716213 0.430333 -1.018693
 32
 45.116855
  C 0.437532 0.912632 1.189260
  C 1.733304 0.544256 0.602563
  C 2.994141 0.555563 1.374203
  C 2.917235 0.927741 2.850886
  C 4.303441 0.897602 3.487866
  C 1.752749 0.177075 -0.737815
  C 2.840114 -0.263957 -1.453760
  C 3.640394 -0.734891 -2.255275
  C 4.369745 -1.370222 -3.290922
  C 3.450614 -2.010034 -4.337398
  C 4.271009 -2.661254 -5.443574
  O 5.791086 -0.096359 -1.183960
  H 0.502420 1.173798 2.238310
  H -0.272068 0.092181 1.066387
  H 0.006276 1.751091 0.638338
  H 3.685513 1.246416 0.876607
  H 3.452604 -0.437005 1.280101
  H 2.273335 0.223972 3.381103
  H 2.501194 1.930064 2.967636
  H 4.745147 -0.093622 3.414995
  H 4.240341 1.159167 4.541132
  H 4.969385 1.609979 3.006549
  H 0.829565 0.229832 -1.303212
  H 5.091624 0.134839 -0.566072
  H 5.060395 -2.103172 -2.863178
  H 5.001858 -0.611408 -3.767443
  H 2.793119 -1.252552 -4.766419
  H 2.825594 -2.762994 -3.854822
  H 4.891826 -1.927603 -5.952532
  H 3.613948 -3.116668 -6.180313
  H 4.917401 -3.437896 -5.041377
  H 6.595004 0.296170 -0.827171
 32
 41.946737
  C 0.421884 1.029720 1.237855
  C 1.677604 0.614920 0.597536
  C 2.968199 0.581664 1.315655
  C 2.961742 0.930502 2.800052
  C 4.370630 0.852432 3.380280
  C 1.621552 0.244455 -0.738205
  C 2.652847 -0.244768 -1.500342
  C 3.451651 -0.762971 -2.271015
  C 4.270712 -1.419552 -3.221635
  C 3.478589 -2.023068 -4.384845
  C 4.413523 -2.689676 -5.386063
  O 5.753973 -0.202191 -1.087527
  H 0.540416 1.293983 2.281157
  H -0.319538 0.232863 1.151039
  H -0.007170 1.876677 0.698202
  H 3.652349 1.265521 0.797878
  H 3.402196 -0.417522 1.184775
  H 2.319198 0.235665 3.343778
  H 2.579481 1.941632 2.950221
  H 4.782511 -0.148392 3.272770
  H 4.355696 1.095947 4.439612
  H 5.035402 1.557153 2.886349
  H 0.671478 0.318893 -1.254506
  H 5.088396 0.106747 -0.465807
  H 4.883086 -2.172886 -2.715557
  H 4.989457 -0.682867 -3.602692
  H 2.901852 -1.243187 -4.884565
  H 2.774800 -2.761081 -3.995940
  H 5.112364 -1.970113 -5.806293
  H 3.842536 -3.121779 -6.204214
  H 4.983211 -3.486739 -4.913953
  H 6.594849 0.159689 -0.788679
 32
 42.230085
  C 0.448202 1.111548 1.174834
  C 1.709349 0.667840 0.565143
  C 2.971997 0.562409 1.324268
  C 2.928791 0.853961 2.819938
  C 4.313919 0.697427 3.440218
  C 1.689654 0.341184 -0.784288
  C 2.727464 -0.178114 -1.518681
  C 3.541618 -0.722212 -2.259155
  C 4.323157 -1.399507 -3.228813
  C 3.466681 -2.107458 -4.286187
  C 4.349278 -2.783469 -5.326855
  O 5.722492 0.037457 -1.187702
  H 0.539328 1.339114 2.229520
  H -0.319167 0.347273 1.036589
  H 0.071398 1.990956 0.648250
  H 3.696437 1.240189 0.856377
  H 3.377598 -0.444718 1.165603
  H 2.242531 0.164728 3.315022
  H 2.580653 1.872843 2.997977
  H 4.688628 -0.314903 3.307963
  H 4.274601 0.903005 4.506910
  H 5.022602 1.390665 2.993191
  H 0.767299 0.480448 -1.336274
  H 5.174828 0.350064 -0.464113
  H 5.012633 -2.091202 -2.737780
  H 4.951847 -0.648461 -3.722002
  H 2.808259 -1.387474 -4.773776
  H 2.841948 -2.855673 -3.795807
  H 4.966728 -2.055763 -5.847901
  H 3.735463 -3.293817 -6.064942
  H 5.001760 -3.519341 -4.863063
  H 6.597983 0.424910 -1.085921
