 16
 0.000000
  C 0.931315 0.051831 0.207916
  C 2.413455 0.062575 0.004314
  H 3.010863 0.012406 0.905031
  C 3.044443 0.129751 -1.173321
  C 2.318610 0.203744 -2.484695
  H 1.243182 0.195390 -2.343645
  C 4.500020 0.131759 -1.203857
  C 5.261029 0.193756 -2.291361
  H 6.335951 0.190118 -2.223151
  H 0.692381 -0.013040 1.265956
  H 0.473734 -0.798676 -0.298027
  H 0.477347 0.959881 -0.189414
  H 2.593398 -0.643232 -3.111772
  H 2.592676 1.116480 -3.011877
  H 4.976626 0.076651 -0.232325
  H 4.852906 0.250204 -3.285730
 16
 5.881545
  C 0.942730 0.023078 0.218626
  C 2.385914 0.041726 0.012731
  H 3.009769 -0.017705 0.897317
  C 3.021062 0.116179 -1.167811
  C 2.291191 0.183843 -2.487337
  H 1.210830 0.157078 -2.353386
  C 4.486390 0.146881 -1.193446
  C 5.247121 0.214821 -2.273667
  H 6.319681 0.229959 -2.201163
  H 0.652479 -0.002274 1.273489
  H 0.410230 -0.765029 -0.339304
  H 0.777406 0.982448 -0.213966
  H 2.580337 -0.658325 -3.117876
  H 2.553376 1.103200 -3.013348
  H 4.963461 0.105670 -0.218147
  H 4.843168 0.256716 -3.266253
 16
 18.419955
  C 0.925292 0.006908 0.231338
  C 2.364442 0.020148 0.025247
  H 3.007684 -0.061723 0.896968
  C 3.011493 0.102049 -1.170385
  C 2.292186 0.162732 -2.482082
  H 1.213236 0.119735 -2.357405
  C 4.457781 0.163733 -1.189864
  C 5.227933 0.235103 -2.273930
  H 6.299664 0.273286 -2.194909
  H 0.608135 0.001388 1.260865
  H 0.359269 -0.692882 -0.363444
  H 1.020291 0.982102 -0.204423
  H 2.596999 -0.674236 -3.112731
  H 2.545346 1.089137 -3.005910
  H 4.928990 0.143255 -0.215932
  H 4.828391 0.253395 -3.272513
 16
 32.310759
  C 0.905391 -0.010529 0.244809
  C 2.349249 0.031289 0.018201
  H 2.994254 -0.040781 0.898201
  C 3.009040 0.106417 -1.183379
  C 2.280378 0.150911 -2.496695
  H 1.202262 0.106229 -2.362313
  C 4.457568 0.177423 -1.192032
  C 5.234585 0.240598 -2.268494
  H 6.309166 0.291479 -2.180892
  H 0.587881 -0.045931 1.277791
  H 0.299679 -0.635764 -0.409337
  H 1.189774 0.967791 -0.136868
  H 2.581437 -0.688052 -3.120086
  H 2.525425 1.068254 -3.030575
  H 4.925037 0.173947 -0.208509
  H 4.843205 0.242987 -3.268758
 16
 43.309071
  C 0.891542 -0.023881 0.256233
  C 2.337397 0.040606 0.006186
  H 2.968370 -0.017750 0.886331
  C 3.004926 0.107688 -1.190165
  C 2.284325 0.130899 -2.508849
  H 1.208196 0.082701 -2.378190
  C 4.445551 0.194927 -1.189629
  C 5.230464 0.249897 -2.264421
  H 6.299998 0.307350 -2.171486
  H 0.585571 -0.128287 1.283950
  H 0.254960 -0.521595 -0.451248
  H 1.333029 0.957640 -0.029440
  H 2.591374 -0.715114 -3.124010
  H 2.525385 1.042764 -3.053644
  H 4.906314 0.207907 -0.205923
  H 4.842276 0.232496 -3.270575
 16
 51.097821
  C 0.878358 -0.038682 0.267018
  C 2.327269 0.054648 0.001145
  H 2.953625 0.007004 0.888361
  C 3.003586 0.109519 -1.201027
  C 2.288942 0.113393 -2.518695
  H 1.208925 0.065781 -2.389502
  C 4.436979 0.205381 -1.192927
  C 5.231359 0.256337 -2.264831
  H 6.298406 0.324610 -2.164821
  H 0.578301 -0.206144 1.283243
  H 0.213773 -0.416015 -0.482648
  H 1.443016 0.948218 0.064035
  H 2.599134 -0.742006 -3.121203
  H 2.529414 1.017816 -3.077591
  H 4.891875 0.231028 -0.209165
  H 4.851368 0.229433 -3.268645
 16
 57.275257
  C 0.872293 -0.061031 0.271866
  C 2.320659 0.074394 0.004266
  H 2.945262 0.024686 0.889888
  C 3.003236 0.114509 -1.205033
  C 2.287272 0.104710 -2.524656
  H 1.207392 0.059929 -2.395747
  C 4.434562 0.215699 -1.192557
  C 5.234709 0.261054 -2.261287
  H 6.305581 0.330716 -2.155530
  H 0.567610 -0.259268 1.281126
  H 0.194022 -0.348565 -0.504030
  H 1.524612 0.941827 0.117833
  H 2.596732 -0.759684 -3.118190
  H 2.527485 0.999523 -3.094404
  H 4.887062 0.248404 -0.209142
  H 4.858412 0.226358 -3.268615
 16
 62.213331
  C 0.870171 -0.095199 0.273008
  C 2.317464 0.094142 0.013799
  H 2.943680 0.035444 0.898347
  C 3.007056 0.120984 -1.207335
  C 2.286974 0.103715 -2.526963
  H 1.208015 0.063177 -2.396620
  C 4.433078 0.224496 -1.192025
  C 5.238408 0.264224 -2.259553
  H 6.309871 0.328019 -2.149984
  H 0.550664 -0.283510 1.284278
  H 0.186971 -0.326025 -0.517659
  H 1.584939 0.947046 0.134115
  H 2.590496 -0.762544 -3.111217
  H 2.528209 0.990645 -3.105177
  H 4.882775 0.259511 -0.212487
  H 4.866890 0.221151 -3.264091
 16
 65.843782
  C 0.875385 -0.133238 0.265938
  C 2.315996 0.111601 0.020442
  H 2.943602 0.038282 0.903879
  C 3.006730 0.124519 -1.204657
  C 2.282975 0.104064 -2.519330
  H 1.205504 0.072427 -2.385830
  C 4.430448 0.227465 -1.188189
  C 5.238400 0.264178 -2.255764
  H 6.309212 0.330567 -2.144427
  H 0.541618 -0.293426 1.272696
  H 0.192057 -0.324641 -0.533431
  H 1.645535 0.969748 0.127233
  H 2.578889 -0.770107 -3.098572
  H 2.530794 0.990773 -3.109644
  H 4.883538 0.266805 -0.203020
  H 4.867516 0.218673 -3.261999
 16
 67.594162
  C 0.883988 -0.182688 0.260498
  C 2.311804 0.133241 0.033432
  H 2.943594 0.046881 0.918329
  C 3.010010 0.133385 -1.201881
  C 2.285674 0.111360 -2.513429
  H 1.206352 0.091177 -2.378468
  C 4.426089 0.232470 -1.184100
  C 5.238162 0.262626 -2.253164
  H 6.298984 0.325528 -2.140210
  H 0.533547 -0.306962 1.258960
  H 0.202460 -0.343294 -0.549009
  H 1.698732 1.015891 0.116708
  H 2.571300 -0.767729 -3.086163
  H 2.539906 0.984056 -3.106434
  H 4.879078 0.272304 -0.201485
  H 4.866928 0.207497 -3.265872
 16
 67.047195
  C 0.890253 -0.234285 0.259117
  C 2.300985 0.144534 0.043977
  H 2.933467 0.025877 0.921742
  C 3.014185 0.127698 -1.207187
  C 2.284800 0.106904 -2.514518
  H 1.206734 0.104409 -2.374205
  C 4.422819 0.227719 -1.183764
  C 5.240961 0.260139 -2.252353
  H 6.310446 0.345636 -2.133964
  H 0.516695 -0.308839 1.265576
  H 0.199915 -0.343228 -0.549810
  H 1.771803 1.084889 0.110799
  H 2.554684 -0.785108 -3.082048
  H 2.552454 0.975988 -3.120768
  H 4.874283 0.283679 -0.199738
  H 4.874943 0.223134 -3.257945
 16
 66.159421
  C 0.904403 -0.280094 0.250618
  C 2.295078 0.163464 0.050434
  H 2.924794 0.037221 0.929005
  C 3.014790 0.137509 -1.203758
  C 2.284544 0.114898 -2.506764
  H 1.207969 0.125920 -2.362944
  C 4.416900 0.238461 -1.178997
  C 5.238802 0.262503 -2.248655
  H 6.306434 0.335812 -2.128543
  H 0.515661 -0.316857 1.251136
  H 0.217821 -0.372065 -0.561455
  H 1.838674 1.134865 0.092512
  H 2.541990 -0.785362 -3.068182
  H 2.561514 0.975766 -3.121186
  H 4.869052 0.298644 -0.194415
  H 4.873053 0.220346 -3.255610
 16
 64.901992
  C 0.916295 -0.318479 0.250654
  C 2.283423 0.182919 0.056363
  H 2.917546 0.044733 0.934072
  C 3.017413 0.146648 -1.206698
  C 2.284585 0.123486 -2.508360
  H 1.208465 0.152395 -2.360779
  C 4.415828 0.245371 -1.175344
  C 5.242194 0.266047 -2.244224
  H 6.309407 0.346827 -2.120865
  H 0.515594 -0.321738 1.249405
  H 0.227629 -0.407667 -0.561767
  H 1.902147 1.184892 0.078520
  H 2.526444 -0.785607 -3.061758
  H 2.573069 0.972805 -3.131016
  H 4.865486 0.306858 -0.191655
  H 4.880198 0.211695 -3.250823
 16
 64.048718
  C 0.922544 -0.347403 0.253553
  C 2.272936 0.199808 0.066617
  H 2.909722 0.038463 0.934331
  C 3.019376 0.164124 -1.208335
  C 2.289686 0.130824 -2.510061
  H 1.215126 0.163770 -2.364015
  C 4.417341 0.282854 -1.175253
  C 5.246526 0.283961 -2.244267
  H 6.313734 0.319397 -2.118691
  H 0.510413 -0.333147 1.244087
  H 0.234362 -0.433453 -0.560238
  H 1.961923 1.221088 0.084730
  H 2.529004 -0.784738 -3.054058
  H 2.581684 0.972299 -3.141198
  H 4.867647 0.345313 -0.190111
  H 4.884102 0.197682 -3.252278
