 23
 0.000000
  C 0.979737 0.152864 0.426187
  C 2.453678 0.138156 0.389467
  C 3.235579 0.603989 1.549116
  H 2.630067 0.937998 2.382876
  C 3.053878 -0.330303 -0.774010
  C 4.430461 -0.413796 -0.981970
  C 5.118445 -0.864476 -2.104036
  C 4.628589 -1.388209 -3.408027
  C 3.140518 -1.505433 -3.700409
  H 3.004477 -1.906563 -4.699189
  O 6.438839 -0.856265 -2.084050
  H 0.585474 0.534919 1.363042
  H 0.585384 -0.853018 0.270244
  H 0.591225 0.765828 -0.388350
  H 3.888552 1.424088 1.244082
  H 3.889746 -0.198648 1.895108
  H 2.389283 -0.646310 -1.558986
  H 5.052690 -0.082508 -0.158783
  H 5.091734 -2.373871 -3.530320
  H 5.092043 -0.761257 -4.178187
  H 2.657387 -0.532460 -3.662025
  H 2.657173 -2.181424 -2.999746
  H 6.822279 -0.522634 -1.251285
 23
 5.133741
  C 0.993206 0.207713 0.423840
  C 2.439743 0.131023 0.372727
  C 3.240117 0.585098 1.525126
  H 2.602210 0.896163 2.347256
  C 3.042314 -0.342979 -0.797366
  C 4.410413 -0.425929 -0.986020
  C 5.100032 -0.866685 -2.086283
  C 4.616983 -1.382724 -3.389476
  C 3.129559 -1.492048 -3.679587
  H 3.006211 -1.890270 -4.683584
  O 6.412053 -0.859701 -2.054835
  H 0.577932 0.552136 1.361398
  H 0.862328 -0.849416 0.258762
  H 0.535674 0.749610 -0.404313
  H 3.869703 1.428273 1.232384
  H 3.913884 -0.197005 1.879408
  H 2.378018 -0.655498 -1.587012
  H 5.032879 -0.098623 -0.161613
  H 5.082128 -2.367203 -3.511843
  H 5.088784 -0.754210 -4.152883
  H 2.645047 -0.520246 -3.649497
  H 2.638570 -2.175412 -2.992531
  H 6.800414 -0.530800 -1.221018
 23
 14.037671
  C 0.975365 0.265214 0.449329
  C 2.405472 0.149575 0.399094
  C 3.232575 0.587118 1.549521
  H 2.613411 0.878249 2.395829
  C 3.010210 -0.336710 -0.787048
  C 4.385662 -0.431035 -0.974324
  C 5.092831 -0.878116 -2.087624
  C 4.625272 -1.393252 -3.414223
  C 3.141969 -1.501969 -3.735207
  H 3.039197 -1.895132 -4.742839
  O 6.421330 -0.877817 -2.043654
  H 0.546208 0.605637 1.381206
  H 1.060473 -0.823035 0.342662
  H 0.482834 0.682095 -0.399689
  H 3.824226 1.453279 1.244616
  H 3.931346 -0.179519 1.876615
  H 2.350864 -0.637911 -1.578170
  H 5.002570 -0.111045 -0.149112
  H 5.090915 -2.378259 -3.532804
  H 5.109767 -0.761211 -4.167076
  H 2.657279 -0.529870 -3.713516
  H 2.638265 -2.191749 -3.063743
  H 6.796156 -0.554970 -1.208332
 23
 21.834477
  C 0.973743 0.295040 0.441005
  C 2.396126 0.141637 0.390201
  C 3.220121 0.577607 1.545020
  H 2.605134 0.851244 2.389673
  C 3.008918 -0.343520 -0.797831
  C 4.384561 -0.445731 -0.977914
  C 5.088433 -0.888518 -2.090248
  C 4.624281 -1.388119 -3.412878
  C 3.145158 -1.484313 -3.731712
  H 3.039679 -1.868239 -4.740913
  O 6.415071 -0.899103 -2.047894
  H 0.542551 0.684485 1.352485
  H 1.229902 -0.786851 0.471449
  H 0.434703 0.560811 -0.448887
  H 3.779134 1.459307 1.240616
  H 3.931806 -0.175115 1.862683
  H 2.351458 -0.631121 -1.597982
  H 5.002273 -0.132411 -0.147712
  H 5.083139 -2.372959 -3.537603
  H 5.111396 -0.754289 -4.159173
  H 2.668128 -0.509371 -3.702485
  H 2.639005 -2.176054 -3.065213
  H 6.790413 -0.580150 -1.199703
 23
 27.352123
  C 0.971363 0.324867 0.429997
  C 2.390216 0.136326 0.385317
  C 3.211050 0.567280 1.550142
  H 2.589430 0.822850 2.401013
  C 3.009829 -0.345385 -0.808668
  C 4.384350 -0.450836 -0.979647
  C 5.090956 -0.891161 -2.088504
  C 4.626603 -1.387474 -3.420617
  C 3.143164 -1.474852 -3.737550
  H 3.033036 -1.856022 -4.748622
  O 6.421325 -0.907201 -2.040777
  H 0.533134 0.777565 1.307766
  H 1.365385 -0.741790 0.597625
  H 0.402337 0.431414 -0.480373
  H 3.760910 1.461216 1.257902
  H 3.926770 -0.184298 1.857795
  H 2.351521 -0.624462 -1.619809
  H 4.998958 -0.142949 -0.145329
  H 5.080333 -2.374746 -3.547686
  H 5.116098 -0.752308 -4.164824
  H 2.672831 -0.499082 -3.704720
  H 2.635236 -2.163863 -3.072434
  H 6.789448 -0.592180 -1.193359
 23
 32.206136
  C 0.970379 0.350168 0.420305
  C 2.380385 0.130643 0.374095
  C 3.202072 0.550813 1.549121
  H 2.587856 0.795074 2.395746
  C 2.999670 -0.345127 -0.809750
  C 4.378427 -0.452006 -0.982038
  C 5.084416 -0.888559 -2.085822
  C 4.620587 -1.386487 -3.421726
  C 3.152211 -1.476698 -3.737808
  H 3.044084 -1.857123 -4.745817
  O 6.423287 -0.902193 -2.035981
  H 0.540096 0.815033 1.282179
  H 1.463001 -0.695271 0.639599
  H 0.388153 0.386471 -0.486389
  H 3.759527 1.452814 1.264522
  H 3.912271 -0.208286 1.851317
  H 2.363147 -0.618710 -1.611738
  H 4.992411 -0.145248 -0.148609
  H 5.068440 -2.358230 -3.548786
  H 5.100757 -0.760647 -4.155813
  H 2.682375 -0.503797 -3.704609
  H 2.647281 -2.165237 -3.072836
  H 6.786468 -0.586613 -1.190251
 23
 34.855366
  C 0.962929 0.400098 0.428418
  C 2.371660 0.129443 0.396597
  C 3.212064 0.542367 1.566050
  H 2.596583 0.794870 2.423229
  C 2.990485 -0.349962 -0.817730
  C 4.363579 -0.457680 -0.990391
  C 5.075452 -0.885818 -2.090064
  C 4.636282 -1.385880 -3.430314
  C 3.162009 -1.495483 -3.775093
  H 3.077112 -1.878626 -4.785249
  O 6.412330 -0.888854 -2.029167
  H 0.526003 0.889917 1.280025
  H 1.524292 -0.660958 0.721674
  H 0.361882 0.338791 -0.466679
  H 3.784197 1.430774 1.292116
  H 3.909645 -0.234162 1.857048
  H 2.329454 -0.613836 -1.617452
  H 4.978047 -0.152515 -0.152160
  H 5.105722 -2.368000 -3.550905
  H 5.128447 -0.742099 -4.166237
  H 2.676090 -0.524011 -3.752479
  H 2.650798 -2.192793 -3.116302
  H 6.766132 -0.569264 -1.177879
 23
 38.320546
  C 0.965375 0.411338 0.397557
  C 2.368919 0.113905 0.385887
  C 3.210608 0.534147 1.558163
  H 2.581338 0.791940 2.432876
  C 2.991749 -0.357984 -0.821245
  C 4.361295 -0.462565 -0.990857
  C 5.076273 -0.888386 -2.097157
  C 4.632470 -1.379006 -3.416879
  C 3.162860 -1.483922 -3.740125
  H 3.064027 -1.867359 -4.752567
  O 6.419952 -0.892179 -2.047371
  H 0.520802 0.900575 1.254741
  H 1.587007 -0.654724 0.712668
  H 0.371017 0.318722 -0.495575
  H 3.781959 1.419654 1.285049
  H 3.912308 -0.248149 1.851765
  H 2.342436 -0.619239 -1.616942
  H 4.972410 -0.159633 -0.154824
  H 5.097805 -2.359417 -3.543112
  H 5.115770 -0.735488 -4.154304
  H 2.684515 -0.519498 -3.711225
  H 2.663245 -2.174806 -3.080865
  H 6.782208 -0.573722 -1.197579
 23
 40.966218
  C 0.966081 0.439475 0.412009
  C 2.364846 0.110456 0.409454
  C 3.224277 0.536988 1.569241
  H 2.614619 0.794024 2.440622
  C 2.979799 -0.360226 -0.809398
  C 4.346991 -0.465265 -0.983785
  C 5.066272 -0.885861 -2.086755
  C 4.641788 -1.379830 -3.420605
  C 3.170961 -1.500693 -3.780593
  H 3.097079 -1.891702 -4.814154
  O 6.408197 -0.881882 -2.022805
  H 0.524363 0.922300 1.269287
  H 1.635219 -0.650671 0.742414
  H 0.371159 0.319372 -0.474756
  H 3.785061 1.409032 1.290851
  H 3.925534 -0.241017 1.853455
  H 2.303954 -0.623886 -1.620658
  H 4.961667 -0.162221 -0.142415
  H 5.116522 -2.351606 -3.537391
  H 5.132612 -0.731192 -4.145494
  H 2.680388 -0.537015 -3.761489
  H 2.662367 -2.198482 -3.130868
  H 6.757023 -0.565715 -1.176681
 23
 42.267584
  C 0.967683 0.461303 0.382524
  C 2.361973 0.089318 0.417039
  C 3.218082 0.541109 1.576177
  H 2.603101 0.796623 2.437043
  C 3.000049 -0.374327 -0.820598
  C 4.365679 -0.474375 -0.979602
  C 5.088103 -0.889700 -2.087275
  C 4.644107 -1.380115 -3.431560
  C 3.163974 -1.490744 -3.761093
  H 3.066525 -1.872139 -4.780158
  O 6.421749 -0.883883 -2.027120
  H 0.505022 0.931231 1.235175
  H 1.679184 -0.696288 0.752753
  H 0.375194 0.309083 -0.502955
  H 3.777131 1.427060 1.290735
  H 3.925475 -0.232149 1.873846
  H 2.330086 -0.632351 -1.627123
  H 4.974818 -0.175104 -0.131401
  H 5.114902 -2.357298 -3.564126
  H 5.127239 -0.728855 -4.165167
  H 2.677270 -0.520007 -3.727583
  H 2.662137 -2.190635 -3.099887
  H 6.772975 -0.570512 -1.175649
 23
 43.188397
  C 0.971568 0.488272 0.362262
  C 2.357287 0.070395 0.423241
  C 3.214535 0.538746 1.580326
  H 2.596757 0.791692 2.440746
  C 3.004289 -0.384305 -0.824583
  C 4.371259 -0.482544 -0.980722
  C 5.093693 -0.892358 -2.091556
  C 4.644527 -1.377361 -3.432247
  C 3.166244 -1.489186 -3.749858
  H 3.063033 -1.864731 -4.759230
  O 6.423884 -0.881404 -2.034337
  H 0.502346 0.947191 1.213620
  H 1.726456 -0.742061 0.760130
  H 0.383013 0.324885 -0.520228
  H 3.767865 1.431148 1.289828
  H 3.923936 -0.224973 1.881173
  H 2.341133 -0.637190 -1.619140
  H 4.981560 -0.186068 -0.129090
  H 5.117678 -2.355316 -3.572442
  H 5.122066 -0.722214 -4.167898
  H 2.676768 -0.516473 -3.710542
  H 2.668614 -2.193855 -3.084196
  H 6.778853 -0.569397 -1.179508
 23
 44.721561
  C 0.979433 0.506240 0.351826
  C 2.359198 0.059962 0.433262
  C 3.216336 0.535776 1.582756
  H 2.599991 0.786985 2.441537
  C 3.004294 -0.387943 -0.815417
  C 4.370234 -0.483975 -0.972296
  C 5.094400 -0.890283 -2.085878
  C 4.642015 -1.375279 -3.430760
  C 3.172549 -1.489306 -3.743988
  H 3.069460 -1.865158 -4.756242
  O 6.422652 -0.876502 -2.029660
  H 0.505398 0.958308 1.198702
  H 1.769236 -0.753481 0.767414
  H 0.393273 0.329391 -0.535861
  H 3.762868 1.424350 1.291200
  H 3.931124 -0.228273 1.885746
  H 2.335999 -0.640243 -1.614728
  H 4.968506 -0.194486 -0.137113
  H 5.120601 -2.361763 -3.575534
  H 5.119598 -0.712680 -4.172966
  H 2.683305 -0.521886 -3.703893
  H 2.679766 -2.193166 -3.081230
  H 6.777586 -0.567413 -1.180001
 23
 43.470062
  C 0.985674 0.538785 0.344972
  C 2.350237 0.039555 0.447280
  C 3.215783 0.535817 1.592156
  H 2.601004 0.775949 2.455986
  C 3.006484 -0.395621 -0.819964
  C 4.367135 -0.491769 -0.973351
  C 5.095799 -0.893714 -2.090109
  C 4.648695 -1.374692 -3.431583
  C 3.175146 -1.496654 -3.753276
  H 3.077077 -1.874767 -4.771742
  O 6.420013 -0.871763 -2.030620
  H 0.509608 0.992253 1.196049
  H 1.823651 -0.827363 0.782597
  H 0.400465 0.367801 -0.539443
  H 3.744101 1.439319 1.292946
  H 3.944563 -0.215503 1.891825
  H 2.332741 -0.643726 -1.617730
  H 4.972871 -0.202333 -0.124522
  H 5.132158 -2.353095 -3.576806
  H 5.124504 -0.711952 -4.166685
  H 2.681395 -0.533440 -3.714958
  H 2.682924 -2.201894 -3.093518
  H 6.775961 -0.563657 -1.176751
 23
 42.550348
  C 0.998761 0.562037 0.333068
  C 2.346229 0.015644 0.455783
  C 3.213108 0.534405 1.594932
  H 2.595139 0.765973 2.463673
  C 3.011153 -0.403676 -0.819647
  C 4.367698 -0.499371 -0.968158
  C 5.099761 -0.896547 -2.090013
  C 4.649073 -1.373240 -3.432180
  C 3.180134 -1.496886 -3.749409
  H 3.081153 -1.874070 -4.768863
  O 6.419566 -0.868496 -2.030937
  H 0.521804 1.018179 1.182854
  H 1.884512 -0.888500 0.790418
  H 0.417688 0.401458 -0.556255
  H 3.722115 1.447041 1.289581
  H 3.958240 -0.205010 1.895654
  H 2.336990 -0.648324 -1.619651
  H 4.972276 -0.214802 -0.117042
  H 5.134443 -2.349659 -3.583051
  H 5.119741 -0.710752 -4.163448
  H 2.682945 -0.531283 -3.708915
  H 2.689808 -2.205459 -3.088574
  H 6.778418 -0.563952 -1.176455
