 20
 0.000000
  C 1.009068 0.117710 0.342043
  C 2.481960 0.115596 0.340945
  C 3.210639 0.593339 1.530541
  H 2.530830 0.908803 2.314119
  C 3.133124 -0.340885 -0.793628
  C 4.517639 -0.400626 -0.943876
  C 5.190075 -0.854153 -2.077464
  C 4.551122 -1.351056 -3.313848
  H 3.472061 -1.335939 -3.272613
  O 6.498082 -0.868894 -2.120600
  H 0.596506 0.492027 1.272337
  H 0.630343 -0.889653 0.163922
  H 0.632372 0.722836 -0.483719
  H 3.858680 1.431581 1.272597
  H 3.857674 -0.190837 1.924883
  H 2.508662 -0.668882 -1.610409
  H 5.129335 -0.068113 -0.115912
  H 4.897319 -2.365974 -3.509141
  H 4.895320 -0.751923 -4.156873
  H 6.942654 -0.544112 -1.314436
 20
 14.457474
  C 0.978383 0.129183 0.370782
  C 2.451346 0.128965 0.374515
  C 3.175632 0.607868 1.566335
  H 2.492721 0.922866 2.348360
  C 3.108224 -0.328604 -0.762220
  C 4.484046 -0.385229 -0.904477
  C 5.203971 -0.882947 -2.148880
  C 4.571979 -1.372439 -3.367616
  H 3.491154 -1.354708 -3.320086
  O 6.645141 -0.894466 -2.184552
  H 0.561963 0.503273 1.300051
  H 0.601488 -0.878977 0.191274
  H 0.603572 0.733694 -0.456722
  H 3.823347 1.446907 1.310311
  H 3.822408 -0.175363 1.962892
  H 2.486777 -0.658120 -1.582648
  H 5.103715 -0.056361 -0.085251
  H 4.917332 -2.388597 -3.564756
  H 4.915442 -0.773409 -4.212554
  H 7.065847 -0.567634 -1.373255
 20
 45.138604
  C 0.950291 0.136508 0.386074
  C 2.431960 0.141242 0.406927
  C 3.147500 0.625042 1.610260
  H 2.454618 0.939523 2.387501
  C 3.111670 -0.322535 -0.741647
  C 4.472792 -0.369546 -0.859288
  C 5.193626 -0.912964 -2.222638
  C 4.577412 -1.394081 -3.420966
  H 3.493500 -1.371311 -3.356467
  O 6.781881 -0.906719 -2.222275
  H 0.521660 0.510713 1.312647
  H 0.577444 -0.874481 0.204114
  H 0.581538 0.741060 -0.446303
  H 3.794495 1.467078 1.360945
  H 3.791599 -0.156397 2.015492
  H 2.500506 -0.655092 -1.570989
  H 5.127323 -0.054629 -0.074927
  H 4.917413 -2.411961 -3.624052
  H 4.912985 -0.795816 -4.270872
  H 7.114541 -0.572221 -1.393479
 20
 80.754581
  C 0.943066 0.144877 0.402484
  C 2.404536 0.150732 0.432241
  C 3.111658 0.629668 1.625077
  H 2.422266 0.944518 2.398653
  C 3.086617 -0.311071 -0.707859
  C 4.456385 -0.353004 -0.812539
  C 5.158489 -0.936388 -2.279633
  C 4.571405 -1.408013 -3.453342
  H 3.489563 -1.385598 -3.384204
  O 6.914047 -0.915919 -2.254839
  H 0.509245 0.517586 1.322430
  H 0.574374 -0.864651 0.216452
  H 0.581203 0.745936 -0.432586
  H 3.762033 1.469167 1.374519
  H 3.756212 -0.152409 2.029340
  H 2.481048 -0.643265 -1.537614
  H 5.163284 -0.051836 -0.064541
  H 4.921122 -2.428687 -3.662800
  H 4.913516 -0.810068 -4.309871
  H 7.167024 -0.568695 -1.398398
 20
 103.425523
  C 0.932739 0.259053 0.391914
  C 2.389966 0.106985 0.403111
  C 3.167633 0.514574 1.580330
  H 2.534183 0.907593 2.368236
  C 2.995937 -0.411035 -0.742156
  C 4.375863 -0.493249 -0.914098
  C 4.893898 -0.936577 -2.152454
  C 4.500788 -1.465083 -3.378386
  H 3.411742 -1.600849 -3.399916
  O 7.203472 -0.624687 -2.146376
  H 0.550774 0.676218 1.315904
  H 0.453118 -0.704261 0.205818
  H 0.626351 0.892578 -0.443002
  H 3.905599 1.273539 1.309717
  H 3.737901 -0.330629 1.973630
  H 2.351534 -0.680779 -1.560412
  H 5.111365 -0.181500 -0.184591
  H 5.001385 -2.424458 -3.566810
  H 4.822128 -0.818747 -4.206250
  H 7.344021 -0.175792 -1.327306
 20
 109.158407
  C 0.875918 0.326828 0.562066
  C 2.333492 0.127060 0.412788
  C 3.235057 0.503268 1.511163
  H 2.690029 0.907072 2.357325
  C 2.787626 -0.396132 -0.766538
  C 4.175904 -0.548477 -1.082600
  C 4.616634 -0.995121 -2.223112
  C 4.661711 -1.530404 -3.490751
  H 3.632740 -1.783238 -3.786881
  O 7.271239 -0.547106 -1.982475
  H 0.616858 0.750274 1.529469
  H 0.347167 -0.616019 0.432428
  H 0.502584 0.980396 -0.225670
  H 3.954877 1.245496 1.181940
  H 3.805745 -0.357805 1.847179
  H 2.065671 -0.664892 -1.541239
  H 4.874076 -0.237969 -0.312428
  H 5.259201 -2.452744 -3.523100
  H 5.092440 -0.836563 -4.219570
  H 7.443454 -0.090021 -1.150493
 20
 109.108934
  C 0.847315 0.365245 0.683240
  C 2.283288 0.143483 0.416768
  C 3.277667 0.484883 1.456168
  H 2.802046 0.886700 2.347359
  C 2.636829 -0.373406 -0.796147
  C 4.000257 -0.581491 -1.205979
  C 4.438633 -1.024102 -2.331079
  C 4.772933 -1.573701 -3.544189
  H 3.829880 -1.885986 -4.013679
  O 7.322775 -0.466861 -1.835027
  H 0.677163 0.775334 1.669641
  H 0.289409 -0.574907 0.586075
  H 0.423421 1.046733 -0.064677
  H 3.989283 1.228593 1.085304
  H 3.851863 -0.398536 1.743604
  H 1.870464 -0.620152 -1.519374
  H 4.720793 -0.297365 -0.455890
  H 5.374785 -2.475175 -3.436798
  H 5.272164 -0.858954 -4.214843
  H 7.581703 -0.018885 -1.029937
 20
 106.722834
  C 0.826251 0.364717 0.745916
  C 2.254715 0.160039 0.418875
  C 3.288888 0.504536 1.419164
  H 2.849223 0.895071 2.331306
  C 2.571649 -0.348208 -0.809146
  C 3.912017 -0.587463 -1.247715
  C 4.391150 -1.044954 -2.348907
  C 4.865792 -1.557423 -3.528209
  H 3.993921 -1.903762 -4.106559
  O 7.113702 -0.525261 -1.808632
  H 0.688830 0.766720 1.743959
  H 0.280252 -0.575370 0.663870
  H 0.366161 1.041256 0.025265
  H 3.973209 1.254858 1.021785
  H 3.883560 -0.372719 1.675778
  H 1.785249 -0.587911 -1.507946
  H 4.712368 -0.338135 -0.543506
  H 5.488224 -2.444208 -3.368058
  H 5.400339 -0.815039 -4.126786
  H 7.617171 -0.105292 -1.109914
