 22
 0.000000
  C 0.978303 0.138449 0.377882
  C 2.444609 0.140424 0.382602
  C 3.217465 0.603300 1.549050
  C 2.448393 1.090463 2.770287
  C 3.407949 1.527765 3.872986
  C 3.098935 -0.319810 -0.765978
  C 4.497520 -0.380370 -0.924027
  C 5.122189 -0.838112 -2.037948
  H 4.639699 -1.214090 -2.924232
  H 6.200343 -0.845305 -2.066968
  H 0.542009 0.496715 1.301838
  H 0.610105 -0.869394 0.172271
  H 0.605583 0.748972 -0.447123
  H 3.888218 1.406900 1.218601
  H 3.885838 -0.209352 1.861492
  H 1.809750 0.294532 3.158363
  H 1.812178 1.936985 2.504480
  H 4.042813 0.703647 4.190055
  H 2.852945 1.874013 4.741065
  H 4.045348 2.342678 3.537794
  H 2.489022 -0.655877 -1.594113
  H 5.120303 -0.040946 -0.108855
 22
 0.513389
  C 1.053388 0.123772 0.339244
  C 2.513926 0.110729 0.444876
  C 3.250324 0.593303 1.615908
  C 2.432221 1.100145 2.804180
  C 3.345635 1.558499 3.940275
  C 3.172300 -0.352673 -0.703532
  C 4.542064 -0.388237 -0.939437
  C 5.010596 -0.818997 -2.142841
  H 4.360371 -1.147934 -2.936746
  H 6.078243 -0.871510 -2.324155
  H 0.540725 0.572808 1.169313
  H 0.679163 -0.881692 0.187011
  H 0.829711 0.643588 -0.609644
  H 3.941922 1.388465 1.289847
  H 3.918369 -0.215458 1.959442
  H 1.779411 0.308535 3.175476
  H 1.805922 1.939868 2.498648
  H 3.968633 0.741834 4.295905
  H 2.755136 1.916941 4.779522
  H 3.994074 2.369332 3.618451
  H 2.553226 -0.693840 -1.518707
  H 5.234312 -0.069207 -0.178703
 22
 0.946577
  C 1.052175 0.098843 0.348236
  C 2.508190 -0.021965 0.478048
  C 3.236879 0.462294 1.660334
  C 2.441060 1.166859 2.747978
  C 3.353010 1.597486 3.892710
  C 3.186358 -0.566619 -0.615004
  C 4.548047 -0.385701 -0.930851
  C 5.014043 -0.676705 -2.170587
  H 4.372733 -1.112613 -2.919113
  H 6.027787 -0.463185 -2.465696
  H 0.557541 0.406633 1.259841
  H 0.612385 -0.825947 -0.033803
  H 0.858597 0.850548 -0.426097
  H 4.050373 1.124157 1.330386
  H 3.761663 -0.392975 2.102968
  H 1.672581 0.503660 3.149379
  H 1.946612 2.049519 2.336727
  H 3.840687 0.737531 4.351794
  H 2.778146 2.104696 4.662200
  H 4.121882 2.282718 3.544494
  H 2.592855 -1.079633 -1.357280
  H 5.209731 0.070981 -0.208436
 22
 5.382143
  C 1.142598 0.065139 0.298371
  C 2.571097 -0.156179 0.553495
  C 3.257285 0.360227 1.745459
  C 2.453546 1.220071 2.711198
  C 3.313952 1.644645 3.898018
  C 3.269398 -0.776791 -0.483996
  C 4.556549 -0.410143 -0.931660
  C 4.850392 -0.500283 -2.248194
  H 4.171056 -0.974560 -2.937991
  H 5.750010 -0.083382 -2.665445
  H 0.605697 0.473376 1.145081
  H 0.655483 -0.836427 -0.068670
  H 1.102107 0.781937 -0.527873
  H 4.155000 0.907844 1.435403
  H 3.659078 -0.505111 2.290727
  H 1.591637 0.667602 3.090349
  H 2.088564 2.112549 2.199267
  H 3.657456 0.780093 4.462287
  H 2.741639 2.277115 4.571516
  H 4.184439 2.208120 3.569426
  H 2.698663 -1.409259 -1.154653
  H 5.235200 0.092023 -0.257002
 22
 11.176440
  C 1.246484 0.077149 0.221740
  C 2.631438 -0.226402 0.599215
  C 3.281251 0.314625 1.802563
  C 2.457215 1.226381 2.699793
  C 3.274567 1.669414 3.907117
  C 3.346304 -0.918669 -0.386365
  C 4.565672 -0.445681 -0.932197
  C 4.672245 -0.397102 -2.273046
  H 3.947921 -0.891011 -2.905050
  H 5.460454 0.134762 -2.767244
  H 0.682077 0.584253 0.993106
  H 0.717801 -0.807849 -0.128435
  H 1.349121 0.734329 -0.651409
  H 4.207484 0.826829 1.514216
  H 3.635180 -0.542344 2.391585
  H 1.567038 0.707729 3.055734
  H 2.140546 2.108978 2.141997
  H 3.587812 0.815504 4.501752
  H 2.684307 2.321553 4.542561
  H 4.162912 2.217424 3.599340
  H 2.786637 -1.608023 -1.005010
  H 5.268930 0.072295 -0.293493
 22
 18.027937
  C 1.337319 0.067761 0.161707
  C 2.680978 -0.299462 0.638332
  C 3.294653 0.257656 1.847351
  C 2.475702 1.254496 2.660841
  C 3.244142 1.689614 3.903873
  C 3.416805 -1.014834 -0.315110
  C 4.561437 -0.448752 -0.942230
  C 4.481796 -0.262813 -2.271249
  H 3.733655 -0.762186 -2.863099
  H 5.174465 0.365564 -2.800584
  H 0.754174 0.627875 0.882883
  H 0.779347 -0.789795 -0.207883
  H 1.551857 0.691217 -0.716502
  H 4.262692 0.702399 1.586529
  H 3.565037 -0.591115 2.490042
  H 1.532794 0.804830 2.978232
  H 2.252241 2.132548 2.055322
  H 3.400698 0.852926 4.580972
  H 2.689602 2.455662 4.442161
  H 4.214480 2.102250 3.638264
  H 2.896623 -1.785560 -0.876287
  H 5.326530 0.030388 -0.345375
 22
 26.540150
  C 1.486612 0.144561 0.043220
  C 2.729499 -0.333400 0.667622
  C 3.294913 0.205837 1.904258
  C 2.453099 1.207712 2.686128
  C 3.222042 1.719465 3.900336
  C 3.481929 -1.106417 -0.235255
  C 4.546352 -0.470780 -0.946131
  C 4.273522 -0.215345 -2.231995
  H 3.504310 -0.746844 -2.766621
  H 4.887890 0.445789 -2.816677
  H 0.896132 0.798234 0.672694
  H 0.877479 -0.654954 -0.373558
  H 1.885564 0.689560 -0.831501
  H 4.279108 0.639337 1.684344
  H 3.527951 -0.651061 2.552250
  H 1.531958 0.737469 3.028566
  H 2.193455 2.057689 2.050876
  H 3.455858 0.909028 4.586244
  H 2.628479 2.455520 4.440991
  H 4.153570 2.195406 3.600925
  H 2.939812 -1.863735 -0.795534
  H 5.312802 0.064955 -0.405135
 22
 34.956262
  C 1.535866 0.077505 0.028921
  C 2.748607 -0.409913 0.696939
  C 3.291247 0.142008 1.939698
  C 2.516814 1.278752 2.594788
  C 3.211253 1.728058 3.876961
  C 3.548320 -1.152052 -0.206072
  C 4.518299 -0.417666 -0.970704
  C 4.079629 -0.042424 -2.181097
  H 3.331327 -0.602646 -2.717914
  H 4.608104 0.701966 -2.748762
  H 0.920944 0.735512 0.623357
  H 0.944897 -0.702309 -0.456668
  H 1.994317 0.607980 -0.836228
  H 4.334033 0.441242 1.767621
  H 3.370765 -0.690917 2.653183
  H 1.503865 0.954009 2.840715
  H 2.451642 2.127548 1.911025
  H 3.157725 0.956732 4.640778
  H 2.736571 2.623844 4.269787
  H 4.260358 1.957628 3.694983
  H 3.109682 -2.027550 -0.673445
  H 5.312725 0.114032 -0.460525
 22
 48.889234
  C 1.668543 0.142841 -0.057321
  C 2.787185 -0.382228 0.698486
  C 3.313223 0.169887 1.943549
  C 2.487636 1.262081 2.620803
  C 3.174399 1.740002 3.895312
  C 3.574545 -1.237175 -0.136613
  C 4.481254 -0.481515 -0.980323
  C 3.869867 -0.011599 -2.076148
  H 3.167781 -0.597247 -2.644571
  H 4.361804 0.760453 -2.650953
  H 1.085861 0.918611 0.418045
  H 1.058151 -0.579435 -0.596317
  H 2.283073 0.528403 -0.962989
  H 4.338252 0.521475 1.762350
  H 3.433078 -0.670259 2.640785
  H 1.497832 0.884113 2.871064
  H 2.371684 2.110027 1.946554
  H 3.301498 0.922573 4.602387
  H 2.578253 2.510244 4.379932
  H 4.153717 2.160266 3.677123
  H 3.039529 -2.042694 -0.636195
  H 5.377058 -0.036086 -0.571795
 22
 64.168457
  C 1.716278 0.093923 -0.034047
  C 2.757844 -0.405440 0.721574
  C 3.313199 0.154652 1.967493
  C 2.512508 1.289018 2.600731
  C 3.167006 1.745551 3.900538
  C 3.575712 -1.249886 -0.133125
  C 4.417000 -0.459778 -0.976515
  C 3.694286 0.078856 -2.030243
  H 3.054037 -0.556637 -2.630965
  H 4.163990 0.870186 -2.596289
  H 1.143906 0.908830 0.380231
  H 1.141319 -0.551583 -0.682882
  H 2.591269 0.477873 -1.226717
  H 4.344573 0.475653 1.779678
  H 3.395089 -0.666624 2.688987
  H 1.495494 0.956665 2.812992
  H 2.463338 2.135204 1.914191
  H 3.206933 0.934041 4.623865
  H 2.600608 2.561859 4.342801
  H 4.180967 2.096775 3.723166
  H 3.081320 -2.107513 -0.578471
  H 5.305181 0.018349 -0.588442
 22
 52.113511
  C 1.634842 0.063750 0.070898
  C 2.708144 -0.374681 0.752259
  C 3.316056 0.192803 1.984857
  C 2.506154 1.306159 2.648129
  C 3.173721 1.756959 3.942209
  C 3.491625 -1.196834 -0.166628
  C 4.367337 -0.482050 -0.994372
  C 3.710119 0.086720 -2.152086
  H 3.189954 -0.615242 -2.810242
  H 4.280675 0.825320 -2.699111
  H 1.063332 0.879846 0.481306
  H 1.093846 -0.545737 -0.630404
  H 2.783492 0.515354 -1.607487
  H 4.328045 0.548327 1.770150
  H 3.433437 -0.632417 2.692461
  H 1.500304 0.952699 2.871356
  H 2.430518 2.159780 1.975106
  H 3.298500 0.922209 4.627709
  H 2.567371 2.511696 4.437888
  H 4.151746 2.186763 3.744940
  H 2.989239 -2.069790 -0.575268
  H 5.230219 0.017735 -0.569797
 22
 39.174172
  C 1.515026 0.001972 0.200702
  C 2.678824 -0.353308 0.782278
  C 3.301060 0.207574 2.011957
  C 2.492987 1.304690 2.700837
  C 3.190518 1.764186 3.975253
  C 3.444685 -1.078523 -0.212258
  C 4.324133 -0.343674 -1.001166
  C 3.786937 0.048858 -2.301899
  H 3.329875 -0.771067 -2.857766
  H 4.445365 0.645902 -2.913678
  H 0.911564 0.782403 0.629870
  H 1.045416 -0.572782 -0.577058
  H 2.914185 0.633131 -1.935861
  H 4.303718 0.578410 1.792955
  H 3.429807 -0.629529 2.704908
  H 1.500949 0.930525 2.954708
  H 2.379510 2.157769 2.032344
  H 3.265730 0.950969 4.692022
  H 2.632579 2.571620 4.441977
  H 4.192537 2.125590 3.760605
  H 2.909694 -1.889756 -0.700107
  H 5.192150 0.155986 -0.593384
 22
 30.471582
  C 1.374128 0.063709 0.286116
  C 2.591952 -0.272165 0.759369
  C 3.299351 0.321249 1.930144
  C 2.446113 1.264800 2.774316
  C 3.231564 1.759601 3.984321
  C 3.286286 -1.016631 -0.266920
  C 4.281998 -0.397266 -1.001850
  C 3.950711 -0.018198 -2.372863
  H 3.602252 -0.854219 -2.979515
  H 4.726574 0.548940 -2.872575
  H 0.788323 0.841367 0.743412
  H 0.895659 -0.486830 -0.505527
  H 3.056560 0.611628 -2.217204
  H 4.199002 0.844241 1.606165
  H 3.634681 -0.513201 2.554786
  H 1.549883 0.746989 3.118228
  H 2.140023 2.125948 2.178736
  H 3.604252 0.924643 4.573594
  H 2.596156 2.367578 4.626192
  H 4.078966 2.366504 3.675436
  H 2.719951 -1.808417 -0.750538
  H 5.156726 0.025999 -0.526376
 22
 22.086161
  C 1.254490 0.032484 0.405716
  C 2.538659 -0.243257 0.759049
  C 3.275977 0.357488 1.907527
  C 2.430606 1.238738 2.823027
  C 3.261178 1.738173 4.000337
  C 3.211759 -0.906978 -0.324992
  C 4.245858 -0.302163 -1.015391
  C 4.085278 -0.092205 -2.449727
  H 3.724262 -0.978678 -2.970604
  H 4.952259 0.340970 -2.931538
  H 0.656315 0.754849 0.929156
  H 0.779084 -0.481095 -0.411432
  H 3.254917 0.625943 -2.490729
  H 4.132080 0.932056 1.554628
  H 3.681333 -0.475074 2.491408
  H 1.581238 0.672001 3.204517
  H 2.052397 2.098720 2.270265
  H 3.586014 0.910093 4.625768
  H 2.675121 2.415592 4.617191
  H 4.142094 2.272931 3.654828
  H 2.651655 -1.681992 -0.837648
  H 5.038538 0.217671 -0.493910
 22
 18.088767
  C 1.197149 0.064165 0.457933
  C 2.509236 -0.184207 0.759828
  C 3.244876 0.358741 1.930771
  C 2.441173 1.254580 2.866124
  C 3.292853 1.698155 4.047584
  C 3.181027 -0.812586 -0.366489
  C 4.191996 -0.167899 -1.049308
  C 4.169674 -0.210104 -2.532440
  H 4.065155 -1.219404 -2.927251
  H 4.991930 0.320838 -2.992593
  H 0.617991 0.774207 1.015789
  H 0.715414 -0.407486 -0.380948
  H 3.233790 0.303711 -2.773930
  H 4.138358 0.888125 1.606512
  H 3.606960 -0.507781 2.496048
  H 1.571129 0.720290 3.240437
  H 2.098799 2.139987 2.331652
  H 3.638555 0.842388 4.620344
  H 2.714466 2.335437 4.713195
  H 4.159287 2.260100 3.713476
  H 2.617416 -1.569057 -0.900901
  H 4.813877 0.564065 -0.558385
