 20
 0.000000
  H 1.423024 0.147121 0.418465
  C 2.501862 0.141716 0.404458
  C 3.245876 0.613334 1.576615
  H 2.612802 0.940849 2.391615
  C 3.090928 -0.324607 -0.756162
  C 4.466820 -0.415327 -0.982986
  C 5.133612 -0.871770 -2.121349
  C 4.615876 -1.390200 -3.414285
  C 3.123415 -1.498415 -3.685140
  H 2.973669 -1.898130 -4.682002
  O 6.449262 -0.871586 -2.121411
  H 3.902432 1.437922 1.288553
  H 3.903004 -0.180651 1.939490
  H 2.420723 -0.638672 -1.537449
  H 5.113532 -0.090899 -0.175451
  H 5.071946 -2.378374 -3.545415
  H 5.072467 -0.766801 -4.191881
  H 2.644228 -0.523550 -3.641421
  H 2.643731 -2.172711 -2.980083
  H 6.855936 -0.541552 -1.296729
 20
 -0.185119
  H 1.468511 0.522350 0.347046
  C 2.525595 0.296444 0.329305
  C 3.254560 0.452092 1.593783
  H 2.581191 0.671928 2.415915
  C 3.076268 -0.104967 -0.869142
  C 4.449184 -0.296080 -1.046446
  C 5.136543 -0.769755 -2.167120
  C 4.618789 -1.408162 -3.403742
  C 3.125556 -1.576563 -3.627370
  H 2.978012 -2.134665 -4.548754
  O 6.447747 -0.724544 -2.173449
  H 3.974509 1.270891 1.514656
  H 3.835975 -0.439386 1.831154
  H 2.407151 -0.238577 -1.700701
  H 5.075983 0.001308 -0.212196
  H 5.100192 -2.393094 -3.444887
  H 5.055980 -0.858166 -4.244907
  H 2.627680 -0.618664 -3.747570
  H 2.661374 -2.138872 -2.822686
  H 6.856773 -0.323574 -1.383026
 20
 2.263964
  H 1.556118 0.874238 0.345766
  C 2.545050 0.460125 0.222190
  C 3.226882 0.194989 1.504562
  H 2.549810 0.356411 2.339507
  C 3.100037 0.194424 -1.004113
  C 4.442651 -0.187458 -1.101910
  C 5.156194 -0.675096 -2.199641
  C 4.627202 -1.464935 -3.340351
  C 3.131014 -1.713478 -3.437105
  H 2.941096 -2.370822 -4.281381
  O 6.459343 -0.561264 -2.234891
  H 4.064996 0.880626 1.646143
  H 3.606248 -0.823656 1.562490
  H 2.508380 0.347503 -1.890512
  H 5.002575 -0.051045 -0.176852
  H 5.156232 -2.423897 -3.294518
  H 4.984881 -0.992000 -4.261607
  H 2.581343 -0.795100 -3.611967
  H 2.748798 -2.196529 -2.542133
  H 6.855744 -0.049913 -1.503089
 20
 9.368010
  H 1.637603 1.046818 0.369061
  C 2.586089 0.585331 0.146768
  C 3.192861 -0.011479 1.366355
  H 2.496642 0.103110 2.200805
  C 3.169293 0.467545 -1.084855
  C 4.439759 -0.111371 -1.156027
  C 5.181641 -0.616876 -2.231078
  C 4.639713 -1.522702 -3.275453
  C 3.149158 -1.821710 -3.223974
  H 2.899808 -2.522797 -4.015494
  O 6.468704 -0.431555 -2.314160
  H 4.074547 0.538219 1.696794
  H 3.375134 -1.078563 1.274766
  H 2.692139 0.874958 -1.961944
  H 4.867043 -0.218780 -0.147944
  H 5.214710 -2.450571 -3.190323
  H 4.904615 -1.102225 -4.251582
  H 2.556159 -0.926947 -3.376046
  H 2.868808 -2.270536 -2.274994
  H 6.848096 0.188942 -1.660690
 20
 24.491658
  H 1.653565 1.059088 0.395707
  C 2.595608 0.616595 0.123065
  C 3.246158 -0.130964 1.246478
  H 2.553811 -0.023819 2.108298
  C 3.199775 0.656251 -1.102927
  C 4.404101 -0.033041 -1.222954
  C 5.188262 -0.581565 -2.250203
  C 4.665521 -1.578085 -3.219916
  C 3.174024 -1.852889 -3.127152
  H 2.889840 -2.571898 -3.887981
  O 6.462557 -0.341789 -2.359327
  H 4.090858 0.382392 1.694197
  H 3.246238 -1.207125 1.135969
  H 2.760587 1.179587 -1.938863
  H 4.675132 -0.321304 -0.164013
  H 5.239749 -2.493035 -3.064792
  H 4.918617 -1.217578 -4.220550
  H 2.600352 -0.950099 -3.295182
  H 2.906115 -2.255429 -2.154592
  H 6.800221 0.384107 -1.793826
 20
 53.871270
  H 1.806368 1.274575 0.585722
  C 2.644099 0.742548 0.180816
  C 3.346369 -0.229095 1.080579
  H 2.714755 -0.271478 1.994366
  C 3.110810 0.850915 -1.097024
  C 4.227257 0.097578 -1.394010
  C 5.102308 -0.510996 -2.245390
  C 4.690784 -1.625674 -3.164892
  C 3.213880 -1.970361 -3.112944
  H 3.002374 -2.770954 -3.816209
  O 6.395443 -0.271496 -2.278234
  H 4.187356 0.192142 1.650232
  H 3.267477 -1.279750 0.810214
  H 2.682807 1.535136 -1.815574
  H 4.416097 -0.322092 -0.084114
  H 5.298771 -2.503535 -2.928963
  H 4.978241 -1.316733 -4.179992
  H 2.606526 -1.108766 -3.372457
  H 2.925348 -2.313977 -2.122912
  H 6.669765 0.517897 -1.772658
 20
 64.457302
  H 1.833233 1.307520 0.563072
  C 2.647254 0.719247 0.183250
  C 3.369705 -0.295097 1.043999
  H 2.822177 -0.339585 2.010875
  C 3.125188 0.887066 -1.100773
  C 4.205964 0.179337 -1.527494
  C 5.062115 -0.421533 -2.317051
  C 4.710267 -1.631212 -3.152614
  C 3.235668 -2.004609 -3.114726
  H 3.058405 -2.856690 -3.765302
  O 6.396174 -0.146592 -2.372622
  H 4.236227 0.093564 1.650076
  H 3.150653 -1.354488 0.791936
  H 2.675307 1.614951 -1.763786
  H 4.279981 -0.413805 0.298851
  H 5.331218 -2.466269 -2.818534
  H 5.015453 -1.398346 -4.175573
  H 2.620143 -1.178129 -3.460814
  H 2.923212 -2.273327 -2.110619
  H 6.614812 0.691478 -1.932770
 20
 64.022200
  H 1.873543 1.317739 0.565690
  C 2.686337 0.714705 0.200100
  C 3.350293 -0.309871 1.091168
  H 2.740085 -0.410777 2.019384
  C 3.136034 0.898741 -1.090724
  C 4.169473 0.214387 -1.635914
  C 5.042167 -0.392003 -2.386877
  C 4.735214 -1.636588 -3.191392
  C 3.270091 -2.053521 -3.145639
  H 3.119972 -2.935436 -3.766549
  O 6.376533 -0.064953 -2.461338
  H 4.095225 0.119223 1.840892
  H 3.151741 -1.359617 0.777089
  H 2.653566 1.645787 -1.703855
  H 4.372183 -0.412991 0.596114
  H 5.380259 -2.442848 -2.828576
  H 5.037176 -1.426234 -4.221728
  H 2.631641 -1.255884 -3.523849
  H 2.961124 -2.293553 -2.130381
  H 6.552630 0.797502 -2.056233
 20
 67.173611
  H 1.891212 1.331855 0.552692
  C 2.702169 0.726906 0.189622
  C 3.302879 -0.348126 1.074243
  H 2.571007 -0.488471 1.891787
  C 3.163502 0.907732 -1.097960
  C 4.193408 0.220329 -1.644358
  C 5.048745 -0.383389 -2.416745
  C 4.728586 -1.641054 -3.193791
  C 3.275493 -2.078327 -3.086625
  H 3.116389 -2.969933 -3.687294
  O 6.373014 -0.040410 -2.544619
  H 4.016656 -0.132752 1.969953
  H 3.331370 -1.331724 0.584865
  H 2.676169 1.654271 -1.715660
  H 4.395402 -0.057592 0.832388
  H 5.397928 -2.431782 -2.845555
  H 4.987531 -1.439648 -4.236358
  H 2.611948 -1.297986 -3.450596
  H 3.010372 -2.307783 -2.059076
  H 6.554363 0.822004 -2.144655
 20
 70.539183
  H 1.984726 1.411253 0.578546
  C 2.759953 0.778773 0.189284
  C 3.287051 -0.386809 1.086283
  H 2.467076 -0.490944 1.807925
  C 3.192546 0.938766 -1.111186
  C 4.195177 0.241398 -1.688118
  C 5.053136 -0.388655 -2.434586
  C 4.732459 -1.672804 -3.166870
  C 3.281146 -2.110645 -3.039028
  H 3.124306 -3.025668 -3.603970
  O 6.373291 -0.043230 -2.582012
  H 4.054791 -0.468691 1.943217
  H 3.368463 -1.288469 0.473381
  H 2.685811 1.684298 -1.714593
  H 4.203344 0.283181 0.936239
  H 5.405666 -2.447933 -2.792267
  H 4.987274 -1.508013 -4.216771
  H 2.613560 -1.347866 -3.431564
  H 3.019220 -2.301548 -2.002653
  H 6.555161 0.830071 -2.206499
 20
 66.385597
  H 2.118087 1.464303 0.630982
  C 2.859743 0.808671 0.216566
  C 3.295575 -0.444647 1.132516
  H 2.430782 -0.520090 1.801119
  C 3.237982 0.953346 -1.122685
  C 4.202287 0.241178 -1.738021
  C 5.072581 -0.409174 -2.455250
  C 4.743873 -1.703404 -3.164252
  C 3.285631 -2.121289 -3.046464
  H 3.125837 -3.045947 -3.594454
  O 6.389078 -0.073862 -2.593729
  H 4.069219 -0.517170 1.935817
  H 3.366919 -1.327125 0.498859
  H 2.708015 1.703177 -1.702274
  H 4.007326 0.507363 0.811000
  H 5.403128 -2.477011 -2.763394
  H 5.014466 -1.564076 -4.213703
  H 2.631969 -1.359764 -3.463904
  H 3.007542 -2.288212 -2.010004
  H 6.577400 0.805709 -2.233450
 20
 47.165667
  H 2.387544 1.548752 0.817493
  C 3.064208 0.858231 0.349092
  C 3.005387 -0.593487 0.972232
  H 2.084279 -0.627918 1.563301
  C 3.443716 1.040578 -1.048386
  C 4.257445 0.302908 -1.755769
  C 5.091098 -0.364203 -2.545773
  C 4.748832 -1.715356 -3.105488
  C 3.334489 -2.180278 -2.784837
  H 3.162245 -3.147865 -3.245818
  O 6.318961 0.045138 -2.871326
  H 3.742956 -0.875202 1.721886
  H 2.949429 -1.348952 0.195772
  H 2.975724 1.890930 -1.544816
  H 4.093531 0.680831 0.787487
  H 5.484399 -2.431344 -2.732955
  H 4.882736 -1.636726 -4.188071
  H 2.595064 -1.482193 -3.168465
  H 3.193276 -2.293829 -1.714039
  H 6.515539 0.949951 -2.581851
 20
 26.174475
  H 2.625207 1.656167 0.901170
  C 3.235570 0.871610 0.481496
  C 2.845100 -0.534932 0.994828
  H 1.890282 -0.483503 1.516272
  C 3.513895 0.978034 -0.979030
  C 4.255608 0.239296 -1.727257
  C 5.086186 -0.413775 -2.579013
  C 4.740490 -1.743959 -3.154563
  C 3.361258 -2.267089 -2.784066
  H 3.195322 -3.225816 -3.266171
  O 6.270383 0.052147 -2.928272
  H 3.549707 -0.924317 1.722945
  H 2.733791 -1.241589 0.181000
  H 3.021621 1.828760 -1.455734
  H 4.261332 0.876587 0.878427
  H 5.517636 -2.453085 -2.854011
  H 4.829198 -1.646073 -4.241757
  H 2.584304 -1.582297 -3.114122
  H 3.266930 -2.410411 -1.712031
  H 6.479570 0.948158 -2.604533
 20
 22.035566
  H 2.502957 1.606920 0.819650
  C 3.248456 0.882058 0.518803
  C 2.958324 -0.507061 1.116433
  H 1.963118 -0.526289 1.556225
  C 3.439040 0.843274 -0.975610
  C 4.287914 0.170192 -1.652712
  C 5.114947 -0.477536 -2.519917
  C 4.701220 -1.733403 -3.196180
  C 3.277090 -2.186369 -2.914439
  H 3.088127 -3.125465 -3.425861
  O 6.325864 -0.062632 -2.796131
  H 3.664277 -0.748206 1.905164
  H 2.996609 -1.288722 0.364853
  H 2.783500 1.530530 -1.514228
  H 4.235419 1.164978 0.889240
  H 5.414620 -2.511739 -2.901691
  H 4.854341 -1.587297 -4.270446
  H 2.555438 -1.457130 -3.272244
  H 3.114854 -2.343344 -1.852031
  H 6.595978 0.771413 -2.365958
 20
 21.425165
  H 2.365015 1.567638 0.720688
  C 3.208813 0.920714 0.507299
  C 3.056380 -0.427983 1.231657
  H 2.050768 -0.535219 1.628029
  C 3.362032 0.714250 -0.978859
  C 4.298894 0.085566 -1.588010
  C 5.136501 -0.569811 -2.433108
  C 4.670990 -1.758864 -3.198772
  C 3.200909 -2.110770 -3.036432
  H 2.989895 -3.031441 -3.572250
  O 6.387141 -0.235462 -2.622881
  H 3.757803 -0.493378 2.058241
  H 3.240759 -1.268675 0.569963
  H 2.619964 1.243226 -1.577890
  H 4.131617 1.401922 0.826710
  H 5.299387 -2.599134 -2.880289
  H 4.913169 -1.585748 -4.251291
  H 2.563253 -1.332662 -3.446182
  H 2.940800 -2.259397 -1.992301
  H 6.702350 0.537759 -2.117135
