14

H -0.6405059149253083 -0.8181983312161646 0.7611068972538346
C -0.235585 -0.954038 0.808088
C 0.804897 -0.08403 0.113793
C 2.219726 -0.613085 0.340813
C 3.270971 0.223127 -0.396921
H -0.010673 -1.010247 1.878036
H -0.172512 -1.971283 0.414498
H 0.593666 -0.067496 -0.958861
H 0.739703 0.936442 0.495036
H 2.425557 -0.594678 1.414254
H 2.268934 -1.653808 0.021131
H 3.976317 0.675076 0.295791
H 3.834571 -0.385629 -1.100094
H 2.800706 1.025511 -0.959961
