12

C -3.497925 0.983878 -0.134637
C -2.055621 0.586417 -0.023627
C -1.648243 -0.478805 0.646011
C -0.238006 -0.948953 0.808527
H 0.07463405098413611 -0.6891806804747971 0.6000609051312911
H -4.097657 0.161437 -0.528394
H -3.616234 1.847566 -0.782845
H -3.899213 1.237093 0.8498
H -1.347491 1.22765 -0.525489
H -2.391627 -1.098285 1.1318
H -0.002208 -0.998503 1.875099
H -0.173962 -1.97178 0.418226
