 19
 0.000000
  H 1.487736 0.159147 0.447412
  C 2.569268 0.148834 0.421649
  C 3.305277 0.617733 1.588255
  C 2.456286 1.086844 2.755767
  C 3.307171 1.558025 3.928413
  C 3.151486 -0.317528 -0.739390
  C 4.543612 -0.411107 -0.973127
  C 5.072822 -0.875372 -2.130853
  H 4.498701 -1.214848 -2.977428
  H 6.141754 -0.928681 -2.263784
  H 3.980555 1.429882 1.281518
  H 3.980667 -0.180729 1.928718
  H 1.806860 0.274987 3.093005
  H 1.806798 1.906302 2.437569
  H 3.942369 0.757722 4.300633
  H 2.672056 1.886677 4.746615
  H 3.942216 2.393473 3.643409
  H 2.493363 -0.637794 -1.536693
  H 5.210392 -0.094455 -0.184219
 19
 -0.225994
  H 1.509062 0.210424 0.451543
  C 2.590190 0.161836 0.414819
  C 3.313117 0.593292 1.602849
  C 2.454844 1.087410 2.750410
  C 3.285880 1.538999 3.943298
  C 3.170966 -0.306519 -0.743493
  C 4.561643 -0.321427 -1.014629
  C 5.064618 -0.902728 -2.130537
  H 4.425244 -1.376977 -2.857882
  H 6.122519 -0.922691 -2.326037
  H 4.039547 1.371851 1.317245
  H 3.970622 -0.217357 1.953674
  H 1.773390 0.295783 3.071415
  H 1.826829 1.917134 2.412577
  H 3.895004 0.725565 4.330929
  H 2.638438 1.880537 4.746071
  H 3.945558 2.360552 3.674827
  H 2.520461 -0.692286 -1.517710
  H 5.234116 0.154476 -0.315012
 19
 0.599695
  H 1.493591 0.111896 0.504938
  C 2.572690 0.111026 0.425098
  C 3.305626 0.515458 1.617142
  C 2.461695 1.116929 2.727057
  C 3.296308 1.517839 3.935508
  C 3.146504 -0.277914 -0.762804
  C 4.531314 -0.198385 -1.060955
  C 5.089862 -0.871785 -2.095893
  H 4.510052 -1.534786 -2.717911
  H 6.138795 -0.783329 -2.322059
  H 4.129021 1.191343 1.347964
  H 3.838046 -0.361754 2.019508
  H 1.690365 0.409695 3.042984
  H 1.937700 1.998331 2.343986
  H 3.801402 0.659106 4.370933
  H 2.662133 1.951918 4.703501
  H 4.047986 2.254652 3.666120
  H 2.503884 -0.669002 -1.539879
  H 5.157155 0.414999 -0.426497
 19
 2.828224
  H 1.462093 0.083512 0.593289
  C 2.528467 0.095705 0.409451
  C 3.302402 0.507330 1.579297
  C 2.481189 1.102784 2.713384
  C 3.338905 1.481728 3.909892
  C 3.078437 -0.255702 -0.801926
  C 4.464781 -0.114727 -1.092296
  C 5.122151 -0.866385 -2.004979
  H 4.628762 -1.675020 -2.522058
  H 6.153927 -0.691516 -2.238545
  H 4.120364 1.183630 1.311133
  H 3.813932 -0.386205 1.972330
  H 1.704463 0.403773 3.034222
  H 1.969791 1.995790 2.343757
  H 3.903605 0.630138 4.278908
  H 2.711839 1.840106 4.725179
  H 4.041503 2.271908 3.654621
  H 2.433110 -0.635189 -1.579394
  H 5.018622 0.587878 -0.476001
 19
 9.307758
  H 1.417502 0.023284 0.655460
  C 2.461814 0.084917 0.379938
  C 3.296201 0.457494 1.535779
  C 2.504468 1.053148 2.703949
  C 3.417215 1.466638 3.848765
  C 2.945041 -0.185920 -0.867682
  C 4.328785 -0.073742 -1.156170
  C 5.176338 -0.839398 -1.863851
  H 4.896506 -1.812828 -2.226917
  H 6.172554 -0.503194 -2.110816
  H 4.074724 1.185505 1.275884
  H 3.808766 -0.438645 1.910630
  H 1.776217 0.328938 3.070979
  H 1.948436 1.927176 2.348276
  H 4.020247 0.630421 4.193252
  H 2.828396 1.817422 4.689526
  H 4.081073 2.272963 3.549681
  H 2.262437 -0.425726 -1.673143
  H 4.818351 0.606032 -0.420060
 19
 19.545753
  H 1.328012 -0.039168 0.704078
  C 2.376832 0.039004 0.369263
  C 3.266479 0.382159 1.498324
  C 2.541109 1.073225 2.663151
  C 3.505781 1.452959 3.776601
  C 2.820573 -0.229559 -0.887327
  C 4.190841 -0.089999 -1.199886
  C 5.237310 -0.734053 -1.727319
  H 5.186808 -1.770080 -2.012632
  H 6.171106 -0.227246 -1.953337
  H 4.065785 1.091416 1.222381
  H 3.741833 -0.520092 1.890815
  H 1.777293 0.406180 3.066778
  H 2.031551 1.971686 2.290980
  H 4.057761 0.582573 4.126027
  H 2.959306 1.861816 4.625349
  H 4.213523 2.206478 3.443828
  H 2.121820 -0.432511 -1.685089
  H 4.604318 0.579655 -0.318518
 19
 27.553443
  H 1.353655 0.006169 0.692432
  C 2.352705 0.075601 0.348517
  C 3.267417 0.378258 1.490416
  C 2.545408 1.080328 2.641556
  C 3.504711 1.418956 3.770645
  C 2.800137 -0.218962 -0.901559
  C 4.186836 -0.089141 -1.168045
  C 5.260451 -0.682795 -1.673087
  H 5.292667 -1.755242 -1.884130
  H 6.141575 -0.130841 -1.991051
  H 4.069201 1.068106 1.223174
  H 3.715249 -0.545317 1.859032
  H 1.757097 0.429731 3.022461
  H 2.072745 1.985247 2.276302
  H 3.995412 0.520412 4.140667
  H 2.962429 1.882587 4.594602
  H 4.260175 2.118168 3.459581
  H 2.109665 -0.437521 -1.677299
  H 4.508935 0.529259 -0.264594
 19
 47.086169
  H 1.220082 0.100618 0.603495
  C 2.254410 0.074256 0.311395
  C 3.201335 0.308958 1.419970
  C 2.573293 1.075207 2.597422
  C 3.594658 1.390224 3.684952
  C 2.723976 -0.226650 -0.938243
  C 4.075491 -0.226038 -1.179417
  C 5.277349 -0.614066 -1.522993
  H 5.553204 -1.664859 -1.587018
  H 6.061710 0.079472 -1.804974
  H 4.058758 1.020447 1.160800
  H 3.631548 -0.626248 1.796911
  H 1.788167 0.448784 3.020764
  H 2.109366 1.996260 2.240853
  H 4.059829 0.476733 4.065898
  H 3.106489 1.883066 4.521216
  H 4.380879 2.058177 3.316483
  H 2.047729 -0.391172 -1.752776
  H 4.415855 0.506225 0.089095
 19
 53.854554
  H 1.216684 0.026594 0.577336
  C 2.261298 0.018796 0.322335
  C 3.214749 0.289580 1.415729
  C 2.590380 1.089937 2.565555
  C 3.598723 1.413091 3.654639
  C 2.729156 -0.230986 -0.940844
  C 4.070493 -0.278513 -1.193587
  C 5.274892 -0.603481 -1.521674
  H 5.584287 -1.634353 -1.582372
  H 6.044253 0.116637 -1.760607
  H 4.070453 1.023070 1.169815
  H 3.655902 -0.625970 1.827992
  H 1.794659 0.482040 2.980089
  H 2.143307 2.012671 2.188559
  H 4.078311 0.505055 4.026371
  H 3.095810 1.890225 4.496816
  H 4.363366 2.091988 3.306222
  H 2.030530 -0.453922 -1.752819
  H 4.406246 0.552726 0.216567
 19
 58.516760
  H 1.290137 0.059070 0.549197
  C 2.335400 -0.000562 0.310659
  C 3.322050 0.262404 1.425951
  C 2.634687 1.125397 2.523417
  C 3.561327 1.427182 3.697775
  C 2.741055 -0.348698 -0.964539
  C 4.026540 -0.455875 -1.341812
  C 5.261159 -0.602275 -1.686585
  H 5.767195 -1.557678 -1.634927
  H 5.866447 0.211985 -2.060764
  H 4.260153 1.034265 1.450834
  H 3.656799 -0.678362 1.882800
  H 1.773424 0.564249 2.880811
  H 2.267413 2.054242 2.090833
  H 3.942548 0.510014 4.144767
  H 3.018341 1.964525 4.468952
  H 4.404491 2.051143 3.402914
  H 1.989536 -0.531409 -1.717859
  H 4.206017 0.498426 0.553054
 19
 58.956901
  H 1.342681 0.074297 0.565567
  C 2.386186 0.012329 0.320761
  C 3.369388 0.333263 1.450240
  C 2.624519 1.152911 2.531693
  C 3.502514 1.431525 3.748370
  C 2.773072 -0.413811 -0.936026
  C 4.042560 -0.522210 -1.372396
  C 5.252278 -0.648990 -1.793205
  H 5.806486 -1.572944 -1.695770
  H 5.785161 0.148916 -2.292725
  H 4.374570 1.008466 1.567075
  H 3.726327 -0.619446 1.864620
  H 1.749581 0.584927 2.846451
  H 2.271016 2.092688 2.108403
  H 3.867674 0.506994 4.189058
  H 2.929088 1.951111 4.511093
  H 4.353349 2.063405 3.499145
  H 1.994504 -0.675322 -1.641010
  H 4.069040 0.778330 0.571332
 19
 57.206596
  H 1.444689 0.215748 0.543730
  C 2.478018 0.098080 0.281661
  C 3.472089 0.420039 1.515498
  C 2.634793 1.169258 2.572292
  C 3.449996 1.428408 3.834695
  C 2.809428 -0.451485 -0.957654
  C 4.058138 -0.613926 -1.424224
  C 5.268908 -0.712966 -1.840750
  H 5.872644 -1.593045 -1.668104
  H 5.750548 0.058853 -2.425195
  H 4.422068 1.032654 1.553711
  H 3.806803 -0.552811 1.891304
  H 1.760775 0.571549 2.834497
  H 2.278031 2.115807 2.167645
  H 3.822068 0.498797 4.257996
  H 2.829619 1.907185 4.587346
  H 4.294076 2.086171 3.639479
  H 1.995052 -0.764560 -1.598438
  H 3.661402 0.800151 0.391878
 19
 34.501261
  H 1.503067 0.464844 0.457225
  C 2.543963 0.306251 0.238719
  C 3.439688 0.488010 1.541124
  C 2.624192 1.187798 2.627525
  C 3.446249 1.335051 3.904508
  C 2.881809 -0.481017 -0.919345
  C 4.122099 -0.679428 -1.375319
  C 5.308655 -0.779228 -1.833964
  H 6.018825 -1.508128 -1.470116
  H 5.682254 -0.147137 -2.627152
  H 4.390301 1.028727 1.485732
  H 3.714526 -0.519204 1.879184
  H 1.725017 0.610478 2.849159
  H 2.309582 2.175630 2.288516
  H 3.783151 0.366641 4.265305
  H 2.843987 1.789805 4.685820
  H 4.315645 1.967592 3.744142
  H 2.066388 -0.931157 -1.475574
  H 3.333080 1.092779 0.029777
 19
 14.385764
  H 1.538033 0.659121 0.368423
  C 2.601041 0.565505 0.177835
  C 3.433141 0.609373 1.475991
  C 2.616089 1.155880 2.641580
  C 3.452204 1.199224 3.916338
  C 2.937871 -0.461093 -0.814102
  C 4.171114 -0.690543 -1.252137
  C 5.336648 -0.880037 -1.738372
  H 6.130706 -1.380947 -1.199794
  H 5.618365 -0.558059 -2.732787
  H 4.334980 1.215259 1.374690
  H 3.771585 -0.401522 1.716243
  H 1.741280 0.523486 2.804225
  H 2.261751 2.163823 2.418531
  H 3.836456 0.212290 4.162634
  H 2.844297 1.543254 4.749567
  H 4.293324 1.880319 3.811494
  H 2.130043 -1.042444 -1.246131
  H 3.003552 1.455421 -0.338962
 19
 14.025140
  H 1.554271 0.834298 0.338979
  C 2.616307 0.741577 0.124844
  C 3.477024 0.887330 1.381958
  C 2.614407 1.049480 2.635681
  C 3.482510 1.074207 3.887850
  C 2.912000 -0.373185 -0.784616
  C 4.142623 -0.727800 -1.141574
  C 5.295361 -1.108049 -1.558012
  H 5.992487 -1.672927 -0.951997
  H 5.675279 -0.859786 -2.541209
  H 4.130926 1.759792 1.315561
  H 4.130045 0.021890 1.499004
  H 1.907799 0.219998 2.698743
  H 2.042548 1.977166 2.582096
  H 4.140521 0.209272 3.924326
  H 2.853663 1.058364 4.775228
  H 4.092745 1.973441 3.925473
  H 2.079318 -0.866499 -1.274241
  H 2.912645 1.569740 -0.542830
