19
 0
 C -3.67555461 -0.47483832 -0.35770441
 C -2.19666583 -0.75137237 -0.59952769
 C -1.91027686 -0.80250430 -2.09936581
 C -1.21582274 0.21438217 0.06761529
 C -1.69978110 1.44610822 0.78916157
 O 0.00000000 0.00000000 0.00000000
 H -4.29414141 -1.25516286 -0.81447081
 H -3.98201111 0.48472149 -0.78814109
 H -3.90417461 -0.46037041 0.71308665
 H -1.97838720 -1.73715543 -0.16817742
 H -2.08019809 0.17307134 -2.56789538
 H -2.55193441 -1.53834771 -2.59566282
 H -0.86974553 -1.08461335 -2.29369092
 H -2.78422862 1.51449437 0.85205101
 H -1.33087587 2.33183623 0.26508690
 H -1.30643296 1.43021898 1.80978148
 O 2.74757117 0.28060496 0.36636391
 H 3.70813639 0.33204142 0.24959241
 H 2.45242883 -0.28060496 -0.36636391
