 19
 0.000000
  C -3.684805 -0.460249 -0.322653
  C -2.240127 -0.754571 -0.604807
  C -1.909837 -0.756797 -2.082790
  C -1.169842 0.199753 0.051687
  C -1.703927 1.404825 0.736457
  O -0.016103 -0.059119 -0.048981
  H -4.288048 -1.253890 -0.766977
  H -4.019500 0.467706 -0.780650
  H -3.905044 -0.461838 0.741324
  H -1.971868 -1.717287 -0.147251
  H -2.098404 0.209824 -2.547623
  H -2.559220 -1.475040 -2.582931
  H -0.872984 -1.029439 -2.258286
  H -2.783045 1.455999 0.780788
  H -1.305206 2.270392 0.204093
  H -1.278584 1.412933 1.741049
  O 2.749629 0.285534 0.378065
  H 3.710355 0.371068 0.317009
  H 2.474468 -0.287294 -0.345784
 19
 -0.015562
  C -3.658387 -0.464486 -0.293682
  C -2.227901 -0.770145 -0.620729
  C -1.921996 -0.740374 -2.101255
  C -1.124919 0.178437 0.026965
  C -1.645071 1.386907 0.698016
  O 0.018845 -0.111370 -0.083794
  H -4.272551 -1.268012 -0.709349
  H -4.009559 0.454976 -0.757431
  H -3.848501 -0.459786 0.776824
  H -1.936635 -1.727028 -0.167698
  H -2.128859 0.233506 -2.543993
  H -2.583592 -1.449675 -2.602017
  H -0.889967 -1.011748 -2.306006
  H -2.722605 1.457321 0.742718
  H -1.228554 2.240731 0.161521
  H -1.212482 1.401442 1.698715
  O 2.585176 0.306468 0.414571
  H 3.541797 0.426176 0.403685
  H 2.357949 -0.293232 -0.310434
 19
 -0.301809
  C -3.641947 -0.438265 -0.268789
  C -2.235353 -0.799042 -0.640928
  C -1.967081 -0.750744 -2.129230
  C -1.078638 0.097380 -0.013857
  C -1.524676 1.336839 0.661320
  O 0.045483 -0.255317 -0.137055
  H -4.299663 -1.210587 -0.674980
  H -3.967284 0.500803 -0.709681
  H -3.800077 -0.439668 0.806342
  H -1.972514 -1.776957 -0.216844
  H -2.143905 0.239554 -2.546467
  H -2.670663 -1.421892 -2.624140
  H -0.954219 -1.063365 -2.367580
  H -2.595721 1.462553 0.727004
  H -1.074975 2.168005 0.113536
  H -1.070155 1.333249 1.653693
  O 2.460250 0.390285 0.563252
  H 3.381750 0.647043 0.455798
  H 2.241535 -0.186948 -0.179177
 19
 -0.673615
  C -3.613060 -0.408006 -0.238524
  C -2.238296 -0.828142 -0.666572
  C -2.021816 -0.763199 -2.164023
  C -1.024757 0.009458 -0.071485
  C -1.382252 1.269022 0.613256
  O 0.074206 -0.409275 -0.223832
  H -4.319884 -1.142590 -0.631464
  H -3.908334 0.552918 -0.652214
  H -3.731681 -0.418582 0.841711
  H -2.009071 -1.827434 -0.275544
  H -2.161725 0.243208 -2.555639
  H -2.775981 -1.388154 -2.644427
  H -1.035971 -1.123616 -2.445172
  H -2.442035 1.452908 0.713318
  H -0.905829 2.076384 0.052388
  H -0.894331 1.240557 1.589750
  O 2.304408 0.474069 0.735730
  H 3.135754 0.918593 0.539018
  H 2.092594 -0.079707 -0.028077
 19
 -0.038585
  C -3.572552 -0.403835 -0.223240
  C -2.214920 -0.856359 -0.677862
  C -2.029919 -0.786324 -2.181355
  C -0.977599 -0.050660 -0.100091
  C -1.280931 1.213107 0.595289
  O 0.104369 -0.505890 -0.274803
  H -4.305480 -1.111061 -0.617018
  H -3.843480 0.573104 -0.615380
  H -3.673776 -0.425043 0.858642
  H -2.013948 -1.870707 -0.312205
  H -2.143608 0.227799 -2.561199
  H -2.813113 -1.383560 -2.649370
  H -1.062346 -1.176363 -2.485958
  H -2.331778 1.425464 0.727535
  H -0.800333 2.012130 0.025535
  H -0.761629 1.169056 1.555880
  O 2.120457 0.494623 0.826629
  H 2.855718 1.062635 0.570461
  H 1.878395 -0.023348 0.042005
 19
 2.740550
  C -3.537004 -0.407235 -0.217003
  C -2.182684 -0.866682 -0.679102
  C -2.001966 -0.790952 -2.183778
  C -0.946629 -0.066480 -0.098504
  C -1.236012 1.200912 0.591658
  O 0.134358 -0.530597 -0.273283
  H -4.273656 -1.111934 -0.607885
  H -3.804571 0.571563 -0.606325
  H -3.632247 -0.428064 0.865388
  H -1.987076 -1.883611 -0.318864
  H -2.114215 0.225293 -2.557851
  H -2.786892 -1.385992 -2.651127
  H -1.036435 -1.182383 -2.492911
  H -2.283782 1.416825 0.739959
  H -0.765030 1.997404 0.010225
  H -0.698616 1.163547 1.543174
  O 1.957248 0.493598 0.840744
  H 2.650252 1.102074 0.557933
  H 1.668365 -0.015007 0.057121
 19
 8.433926
  C -3.507494 -0.412007 -0.215294
  C -2.147134 -0.864809 -0.676853
  C -1.973795 -0.782360 -2.185602
  C -0.942309 -0.041923 -0.085965
  C -1.219441 1.227399 0.583991
  O 0.131790 -0.541238 -0.255133
  H -4.238655 -1.116170 -0.614035
  H -3.772484 0.570857 -0.594290
  H -3.604245 -0.442585 0.867011
  H -1.950070 -1.886791 -0.337369
  H -2.086838 0.238145 -2.548423
  H -2.760783 -1.374535 -2.651123
  H -1.011413 -1.174900 -2.502315
  H -2.265551 1.431925 0.758733
  H -0.785742 2.027959 -0.021278
  H -0.655985 1.215508 1.521902
  O 1.885184 0.445722 0.867935
  H 2.529604 1.097200 0.555943
  H 1.512970 0.026651 0.020390
 19
 27.754206
  C -3.474083 -0.416050 -0.204883
  C -2.096942 -0.838897 -0.667750
  C -1.957794 -0.773958 -2.189092
  C -0.934859 0.000684 -0.098295
  C -1.191440 1.261663 0.580753
  O 0.162017 -0.492870 -0.273837
  H -4.194984 -1.129832 -0.601650
  H -3.751101 0.564357 -0.582403
  H -3.562407 -0.436066 0.877722
  H -1.896948 -1.866483 -0.344758
  H -2.089895 0.241506 -2.555654
  H -2.740760 -1.385244 -2.632069
  H -0.995370 -1.153666 -2.518960
  H -2.232280 1.470399 0.783769
  H -0.764767 2.070897 -0.019161
  H -0.593529 1.251110 1.497959
  O 1.767901 0.448748 0.952960
  H 2.413945 1.097550 0.652633
  H 1.293859 -0.034382 -0.143311
 19
 35.497876
  C -3.451674 -0.421879 -0.188937
  C -2.074265 -0.833877 -0.669468
  C -1.963009 -0.774870 -2.197846
  C -0.928387 0.005253 -0.128802
  C -1.159111 1.266594 0.549107
  O 0.192941 -0.488866 -0.315674
  H -4.174542 -1.139961 -0.572540
  H -3.741113 0.554874 -0.565795
  H -3.522289 -0.438045 0.894700
  H -1.862166 -1.859841 -0.346279
  H -2.109505 0.238653 -2.563203
  H -2.747995 -1.393496 -2.625340
  H -1.003264 -1.147604 -2.542361
  H -2.193580 1.479688 0.779007
  H -0.745773 2.076660 -0.059464
  H -0.535976 1.257497 1.450159
  O 1.704633 0.486204 1.091872
  H 2.337345 1.164261 0.832486
  H 1.167761 -0.107652 -0.279913
 19
 41.532901
  C -3.431003 -0.433274 -0.169650
  C -2.052911 -0.824352 -0.669861
  C -1.974745 -0.771802 -2.202752
  C -0.916762 0.026388 -0.156435
  C -1.143147 1.292088 0.511548
  O 0.217541 -0.465564 -0.326639
  H -4.150318 -1.162918 -0.536500
  H -3.740938 0.537041 -0.546829
  H -3.481457 -0.442470 0.915108
  H -1.824487 -1.849357 -0.352632
  H -2.139341 0.239202 -2.567047
  H -2.762103 -1.400047 -2.610465
  H -1.020101 -1.136902 -2.567820
  H -2.172759 1.492616 0.772581
  H -0.763060 2.104849 -0.115169
  H -0.486937 1.297856 1.390017
  O 1.642003 0.472208 1.240997
  H 2.273436 1.168801 1.032266
  H 1.153916 -0.158569 -0.468068
 19
 47.678856
  C -3.419818 -0.431781 -0.170395
  C -2.034249 -0.811257 -0.662660
  C -1.958304 -0.769680 -2.197808
  C -0.914328 0.055748 -0.149091
  C -1.162505 1.320813 0.516140
  O 0.239203 -0.405843 -0.285382
  H -4.129464 -1.171731 -0.534665
  H -3.736882 0.533015 -0.555361
  H -3.474205 -0.433477 0.914147
  H -1.797078 -1.832256 -0.339500
  H -2.133451 0.237435 -2.566872
  H -2.739297 -1.409656 -2.598659
  H -1.002903 -1.128446 -2.565321
  H -2.195434 1.504444 0.775780
  H -0.793529 2.135225 -0.114789
  H -0.505456 1.343416 1.393176
  O 1.604291 0.471517 1.293613
  H 2.258018 1.134135 1.047475
  H 1.160238 -0.282728 -0.594609
 19
 50.655352
  C -3.420797 -0.428145 -0.170782
  C -2.025778 -0.808232 -0.638931
  C -1.935163 -0.783421 -2.175238
  C -0.920657 0.073408 -0.116844
  C -1.188503 1.344528 0.530295
  O 0.246619 -0.355511 -0.224828
  H -4.121031 -1.178350 -0.531793
  H -3.735471 0.528849 -0.576138
  H -3.489847 -0.411869 0.912736
  H -1.790368 -1.824450 -0.301455
  H -2.110998 0.219276 -2.554994
  H -2.708684 -1.432474 -2.575564
  H -0.976277 -1.141302 -2.533433
  H -2.225820 1.520043 0.777205
  H -0.821533 2.146453 -0.117445
  H -0.538815 1.401335 1.410069
  O 1.615042 0.548356 1.230085
  H 2.288942 1.146371 0.891753
  H 1.138242 -0.435664 -0.608833
 19
 50.465257
  C -3.417502 -0.402082 -0.168276
  C -2.015398 -0.791061 -0.610068
  C -1.904738 -0.782134 -2.148301
  C -0.921800 0.084602 -0.073802
  C -1.183680 1.354925 0.564880
  O 0.261377 -0.342824 -0.129516
  H -4.116467 -1.147711 -0.540345
  H -3.716891 0.557819 -0.577963
  H -3.505215 -0.384271 0.913961
  H -1.790887 -1.807260 -0.264167
  H -2.070866 0.218285 -2.537742
  H -2.677743 -1.430153 -2.551034
  H -0.944981 -1.150169 -2.493816
  H -2.217526 1.532877 0.825597
  H -0.831531 2.145994 -0.105514
  H -0.512444 1.437574 1.427037
  O 1.631905 0.626997 1.246867
  H 2.288862 1.169020 0.798201
  H 1.036982 -0.527315 -0.683994
 19
 46.031229
  C -3.427294 -0.393204 -0.212470
  C -2.012771 -0.790657 -0.607653
  C -1.865073 -0.807991 -2.144076
  C -0.941598 0.084180 -0.039322
  C -1.212808 1.344564 0.610411
  O 0.261463 -0.311562 -0.060121
  H -4.118372 -1.133483 -0.608868
  H -3.705134 0.569818 -0.629737
  H -3.551508 -0.376320 0.866203
  H -1.802788 -1.803069 -0.240744
  H -2.021188 0.186704 -2.551782
  H -2.627880 -1.461922 -2.556252
  H -0.898254 -1.180895 -2.463730
  H -2.249545 1.521107 0.861239
  H -0.856194 2.134823 -0.059057
  H -0.549504 1.437381 1.476962
  O 1.704645 0.717823 1.155225
  H 2.347454 1.144824 0.579130
  H 0.840028 -0.698840 -0.742528
 19
 40.325541
  C -3.430892 -0.389511 -0.250512
  C -1.999014 -0.776518 -0.594059
  C -1.799617 -0.801990 -2.123968
  C -0.959537 0.106672 0.013209
  C -1.262618 1.352228 0.683549
  O 0.260374 -0.226282 -0.038641
  H -4.102863 -1.126125 -0.684659
  H -3.694510 0.578826 -0.664649
  H -3.598641 -0.388149 0.822309
  H -1.800611 -1.786553 -0.212407
  H -1.951066 0.189299 -2.541960
  H -2.541889 -1.464553 -2.558671
  H -0.819723 -1.165824 -2.415153
  H -2.306219 1.504229 0.921280
  H -0.918880 2.159892 0.028031
  H -0.617249 1.451340 1.560745
  O 1.815396 0.785395 1.024711
  H 2.445937 1.063253 0.350780
  H 0.595300 -0.882346 -0.687105
