 20
 0.000000
  C 1.005937 0.117712 0.344707
  C 2.480632 0.119461 0.349427
  C 3.210601 0.597811 1.538017
  H 2.550565 0.918836 2.335985
  C 3.135185 -0.337729 -0.787305
  C 4.518723 -0.401518 -0.946946
  C 5.181076 -0.856736 -2.083508
  C 4.553909 -1.353617 -3.323742
  H 3.473087 -1.354134 -3.325490
  O 6.493780 -0.870208 -2.118373
  H 0.585725 0.491365 1.273114
  H 0.631445 -0.892201 0.171196
  H 0.631644 0.726169 -0.479890
  H 3.861024 1.430795 1.267008
  H 3.861259 -0.190500 1.919494
  H 2.512084 -0.666799 -1.606100
  H 5.142598 -0.072174 -0.125998
  H 4.918679 -2.364594 -3.511499
  H 4.918979 -0.752188 -4.157598
  H 6.906724 -0.541645 -1.297462
 20
 1.056377
  C 1.013781 0.008205 0.369322
  C 2.486791 0.081252 0.341475
  C 3.207424 0.685357 1.479228
  H 2.524157 1.016897 2.254603
  C 3.146753 -0.425002 -0.769878
  C 4.530953 -0.438914 -0.934217
  C 5.199623 -0.883259 -2.072842
  C 4.556885 -1.225860 -3.357892
  H 3.513230 -0.942894 -3.402025
  O 6.511924 -0.950156 -2.099680
  H 0.593110 0.462154 1.260671
  H 0.690003 -1.033188 0.315391
  H 0.591805 0.492022 -0.513075
  H 3.797752 1.540655 1.146770
  H 3.909195 -0.027864 1.913513
  H 2.532202 -0.852644 -1.547999
  H 5.145154 -0.043126 -0.136613
  H 4.652683 -2.299431 -3.523672
  H 5.105663 -0.747635 -4.168128
  H 6.937618 -1.014527 -1.225017
 20
 6.269465
  C 0.990788 0.035059 0.383804
  C 2.461429 0.119100 0.356489
  C 3.176472 0.731198 1.490634
  H 2.492086 1.055866 2.267610
  C 3.125731 -0.388061 -0.753393
  C 4.510081 -0.383088 -0.919956
  C 5.189131 -0.815439 -2.053414
  C 4.564374 -1.181956 -3.338071
  H 3.492669 -1.034952 -3.353262
  O 6.517341 -0.785639 -2.076504
  H 0.565748 0.485264 1.274675
  H 0.674936 -1.008363 0.327694
  H 0.566376 0.514980 -0.499289
  H 3.756757 1.591579 1.155085
  H 3.889328 0.028163 1.921937
  H 2.514118 -0.824504 -1.529372
  H 5.123034 0.032840 -0.133036
  H 4.799707 -2.224021 -3.558993
  H 5.027070 -0.601279 -4.136782
  H 6.970845 -1.266687 -1.364994
 20
 10.530140
  C 0.997453 0.019639 0.368301
  C 2.468076 0.078441 0.360328
  C 3.181683 0.616219 1.530178
  H 2.496465 0.910074 2.318609
  C 3.135843 -0.383977 -0.768938
  C 4.522284 -0.383559 -0.924289
  C 5.214278 -0.825827 -2.043443
  C 4.608156 -1.336344 -3.285901
  H 3.526475 -1.316076 -3.276435
  O 6.548179 -0.692740 -2.050522
  H 0.570126 0.425354 1.279205
  H 0.663543 -1.012605 0.246810
  H 0.591990 0.557249 -0.490408
  H 3.779849 1.482767 1.245121
  H 3.881347 -0.119787 1.927017
  H 2.524423 -0.767213 -1.572698
  H 5.134112 0.004086 -0.121499
  H 4.952802 -2.355278 -3.467566
  H 4.979662 -0.747689 -4.126385
  H 7.072274 -1.411150 -1.668442
 20
 7.620630
  C 0.958737 0.116201 0.344935
  C 2.430866 0.151407 0.360961
  C 3.135394 0.603941 1.572260
  H 2.443429 0.851758 2.370535
  C 3.108349 -0.250693 -0.784542
  C 4.495672 -0.254641 -0.923333
  C 5.202417 -0.703299 -2.032973
  C 4.619148 -1.354955 -3.222356
  H 3.540374 -1.426534 -3.178646
  O 6.517587 -0.496743 -2.020734
  H 0.524966 0.462873 1.276908
  H 0.609772 -0.898400 0.144539
  H 0.575006 0.722552 -0.477200
  H 3.743843 1.481925 1.351356
  H 3.824472 -0.162702 1.926986
  H 2.503222 -0.571420 -1.620031
  H 5.107710 0.094972 -0.102220
  H 5.035430 -2.355308 -3.347568
  H 4.913045 -0.793145 -4.110345
  H 7.095595 -1.275133 -2.059422
 20
 1.367486
  C 0.943802 0.177638 0.300656
  C 2.419815 0.171605 0.342687
  C 3.115737 0.562170 1.584275
  H 2.416162 0.773642 2.387125
  C 3.108224 -0.208358 -0.803573
  C 4.495450 -0.234353 -0.922617
  C 5.214615 -0.712927 -2.016759
  C 4.645051 -1.444697 -3.163502
  H 3.570095 -1.536424 -3.101786
  O 6.507202 -0.478752 -1.983963
  H 0.503686 0.478010 1.246406
  H 0.569064 -0.811531 0.030957
  H 0.592507 0.848923 -0.485644
  H 3.726149 1.450278 1.410895
  H 3.800650 -0.221952 1.908182
  H 2.511024 -0.484814 -1.660192
  H 5.110636 0.129616 -0.110503
  H 5.072449 -2.445280 -3.224126
  H 4.910729 -0.932543 -4.087881
  H 7.063410 -1.082710 -2.513518
 20
 3.243372
  C 0.946653 0.225565 0.287840
  C 2.421091 0.173183 0.316330
  C 3.131930 0.307828 1.602067
  H 2.448324 0.289286 2.444720
  C 3.104044 -0.004865 -0.874780
  C 4.496202 -0.051153 -0.989884
  C 5.217223 -0.650759 -2.019647
  C 4.671836 -1.620200 -2.988898
  H 3.601616 -1.741202 -2.873334
  O 6.484155 -0.314491 -2.052823
  H 0.517326 0.284922 1.282469
  H 0.540523 -0.645895 -0.225661
  H 0.618090 1.090407 -0.291705
  H 3.674494 1.255099 1.618235
  H 3.878109 -0.474546 1.727539
  H 2.517009 -0.095120 -1.778608
  H 5.138978 0.471960 -0.290993
  H 5.145811 -2.593147 -2.855317
  H 4.894906 -1.295049 -4.005409
  H 7.091603 -0.859630 -2.587294
 20
 11.526598
  C 0.935250 0.262370 0.302866
  C 2.409724 0.173096 0.265292
  C 3.170618 0.080621 1.527132
  H 2.517906 -0.039880 2.388973
  C 3.051068 0.181738 -0.954198
  C 4.447182 0.136693 -1.116707
  C 5.176027 -0.555647 -2.069240
  C 4.695377 -1.727319 -2.822414
  H 3.638840 -1.897493 -2.635628
  O 6.421688 -0.135104 -2.185667
  H 0.546694 0.135506 1.303175
  H 0.482338 -0.477011 -0.362612
  H 0.610431 1.233097 -0.075202
  H 3.741175 0.999952 1.660305
  H 3.890470 -0.731574 1.502551
  H 2.447414 0.286386 -1.848042
  H 5.129108 0.801711 -0.592005
  H 5.251316 -2.622899 -2.548091
  H 4.857688 -1.567619 -3.888961
  H 7.111770 -0.784948 -2.408467
 20
 23.813612
  C 0.937399 0.247939 0.333035
  C 2.408583 0.168751 0.257626
  C 3.196490 0.004400 1.491299
  H 2.583909 -0.317203 2.324591
  C 3.023082 0.301553 -0.960863
  C 4.413767 0.177759 -1.171156
  C 5.130305 -0.564686 -2.085208
  C 4.697855 -1.790323 -2.782134
  H 3.677158 -2.053455 -2.515484
  O 6.345503 -0.073593 -2.252931
  H 0.572972 0.069323 1.337318
  H 0.484620 -0.484070 -0.330723
  H 0.589251 1.225852 -0.005963
  H 3.609995 0.982755 1.753641
  H 4.047260 -0.665139 1.357530
  H 2.417847 0.549265 -1.824268
  H 5.176748 0.877491 -0.800779
  H 5.354567 -2.630014 -2.551283
  H 4.767003 -1.626361 -3.859409
  H 7.120055 -0.654751 -2.286726
 20
 44.466922
  C 0.896174 0.470698 0.487730
  C 2.328561 0.170597 0.277307
  C 3.195497 -0.216487 1.425013
  H 2.609465 -0.463721 2.319912
  C 2.843718 0.286700 -0.984939
  C 4.195981 0.100880 -1.302024
  C 5.050515 -0.573619 -2.156607
  C 4.995672 -1.932757 -2.747847
  H 4.026572 -2.367276 -2.556372
  O 6.147123 0.208101 -2.351291
  H 0.587286 0.288372 1.526824
  H 0.263604 -0.122815 -0.162841
  H 0.696758 1.508872 0.227001
  H 3.894464 0.600781 1.659218
  H 3.790379 -1.086417 1.168133
  H 2.176190 0.630049 -1.778877
  H 4.998880 0.933533 -1.179377
  H 5.769386 -2.578431 -2.342861
  H 5.150016 -1.862948 -3.823409
  H 6.993242 -0.258430 -2.300607
 20
 65.869208
  C 0.886511 0.527640 0.586393
  C 2.290867 0.178456 0.274383
  C 3.209044 -0.240949 1.358684
  H 2.673287 -0.440240 2.281454
  C 2.728817 0.247449 -1.032725
  C 4.009949 -0.027021 -1.445094
  C 4.922567 -0.634263 -2.164690
  C 5.055435 -1.955563 -2.809124
  H 4.109947 -2.486693 -2.763350
  O 6.047735 0.270117 -2.186118
  H 0.640401 0.330576 1.625194
  H 0.197978 -0.024908 -0.052973
  H 0.710734 1.585502 0.382673
  H 3.938679 0.544906 1.557019
  H 3.768848 -1.128181 1.066422
  H 2.044266 0.623950 -1.785291
  H 5.226645 0.877876 -1.413739
  H 5.818253 -2.555156 -2.314677
  H 5.339485 -1.829880 -3.853045
  H 6.929299 -0.101552 -1.972693
 20
 52.113643
  C 0.851097 0.548236 0.594620
  C 2.242801 0.162933 0.272754
  C 3.173540 -0.232074 1.358661
  H 2.647200 -0.405931 2.285759
  C 2.670364 0.211190 -1.041489
  C 3.907192 -0.115373 -1.478768
  C 4.867908 -0.654878 -2.150928
  C 5.082050 -1.946858 -2.838307
  H 4.158600 -2.516491 -2.835369
  O 6.056751 0.280486 -2.182312
  H 0.624709 0.394272 1.644206
  H 0.141164 -0.025371 -0.004894
  H 0.682830 1.592592 0.355698
  H 3.906151 0.550775 1.533345
  H 3.722218 -1.129743 1.085034
  H 1.989469 0.616191 -1.786749
  H 5.572714 0.937699 -1.618014
  H 5.853111 -2.535963 -2.344436
  H 5.380313 -1.769980 -3.864030
  H 6.923623 -0.103617 -1.912688
 20
 44.873234
  C 0.887081 0.614596 0.662066
  C 2.247376 0.152291 0.289461
  C 3.157225 -0.398164 1.327679
  H 2.620709 -0.616335 2.246322
  C 2.642753 0.216604 -1.035287
  C 3.861727 -0.111391 -1.511228
  C 4.878837 -0.614216 -2.113702
  C 5.156142 -1.962679 -2.672205
  H 4.249702 -2.559801 -2.651414
  O 6.058771 0.306216 -2.288035
  H 0.653492 0.379085 1.695248
  H 0.132392 0.161705 0.019325
  H 0.801202 1.694692 0.530248
  H 3.945213 0.317632 1.565004
  H 3.640308 -1.307305 0.972023
  H 1.937321 0.611412 -1.756738
  H 5.819567 1.067069 -1.719250
  H 5.921190 -2.477631 -2.092057
  H 5.490874 -1.875586 -3.704540
  H 6.914549 -0.120980 -2.051336
 20
 44.582626
  C 0.820760 0.554973 0.605473
  C 2.214116 0.171191 0.266316
  C 3.128028 -0.333581 1.324284
  H 2.611424 -0.446811 2.271877
  C 2.642142 0.271213 -1.050701
  C 3.876217 -0.022078 -1.501160
  C 4.887493 -0.547595 -2.098190
  C 5.092444 -1.899051 -2.681873
  H 4.176302 -2.469260 -2.606748
  O 6.120307 0.284420 -2.242024
  H 0.614552 0.419335 1.662750
  H 0.106667 -0.040002 0.034613
  H 0.634851 1.598812 0.347185
  H 3.959936 0.354129 1.471379
  H 3.550430 -1.295288 1.037331
  H 1.946227 0.670157 -1.782059
  H 6.129230 0.960550 -1.531451
  H 5.875631 -2.440482 -2.153532
  H 5.357697 -1.814367 -3.735043
  H 6.943916 -0.255792 -2.272815
 20
 43.373773
  C 0.844135 0.625451 0.638372
  C 2.205998 0.168429 0.257545
  C 3.109541 -0.422539 1.280703
  H 2.584198 -0.604585 2.213242
  C 2.614615 0.288117 -1.062758
  C 3.812872 -0.081683 -1.549547
  C 4.868873 -0.573353 -2.089146
  C 5.152934 -1.933962 -2.619232
  H 4.256119 -2.543125 -2.556738
  O 6.061630 0.313609 -2.310617
  H 0.655467 0.479642 1.697626
  H 0.084273 0.081938 0.074239
  H 0.710362 1.682966 0.404264
  H 3.943518 0.248427 1.489492
  H 3.531517 -1.360914 0.922268
  H 1.920527 0.722088 -1.773206
  H 6.036007 1.112310 -1.738513
  H 5.936654 -2.423368 -2.043207
  H 5.455168 -1.873656 -3.663371
  H 6.903960 -0.185321 -2.205803
