 31
 0.000000
  C 0.948377 0.147043 0.418758
  C 2.421513 0.140442 0.401479
  C 3.220210 0.604813 1.555953
  C 2.465165 1.099392 2.786465
  C 3.443472 1.536113 3.872729
  C 3.026170 -0.327609 -0.763104
  C 4.407690 -0.411981 -0.974471
  C 5.082959 -0.857904 -2.086539
  C 4.611415 -1.377732 -3.383035
  C 3.129269 -1.506566 -3.705402
  C 2.945922 -2.070784 -5.112889
  H 6.162962 -0.843970 -2.052087
  H 0.531333 0.519936 1.346208
  H 0.571898 -0.862307 0.245999
  H 0.571350 0.755548 -0.404619
  H 3.880057 1.410478 1.214321
  H 3.880378 -0.212876 1.867016
  H 1.830251 0.306719 3.185973
  H 1.830101 1.947950 2.526252
  H 4.078911 0.708826 4.180756
  H 2.903906 1.888039 4.748421
  H 4.078793 2.346482 3.522423
  H 2.353638 -0.641459 -1.543219
  H 5.038873 -0.083919 -0.158151
  H 5.084620 -2.361286 -3.503930
  H 5.085205 -0.750563 -4.149922
  H 2.646165 -0.529676 -3.661719
  H 2.645716 -2.182532 -2.999123
  H 3.398696 -1.419097 -5.856621
  H 1.888683 -2.164640 -5.347748
  H 3.398327 -3.055936 -5.200407
 31
 5.359754
  C 1.001311 0.113560 0.336494
  C 2.474973 0.122516 0.357216
  C 3.226868 0.600703 1.545395
  C 2.437053 1.087274 2.756100
  C 3.381395 1.534592 3.867910
  C 3.142192 -0.319979 -0.743671
  C 4.513515 -0.417647 -0.987794
  C 5.131908 -0.869569 -2.114483
  C 4.616081 -1.378369 -3.383899
  C 3.121214 -1.482158 -3.645227
  C 2.862534 -2.041821 -5.042019
  H 6.214657 -0.860540 -2.091600
  H 0.559171 0.482272 1.253525
  H 0.638214 -0.899735 0.151890
  H 0.637254 0.716382 -0.498243
  H 3.890436 1.410929 1.220870
  H 3.891098 -0.208093 1.872045
  H 1.801156 0.287480 3.139698
  H 1.800638 1.929699 2.479423
  H 4.017631 0.714306 4.192597
  H 2.815527 1.880709 4.729259
  H 4.017120 2.351639 3.534220
  H 2.362488 -0.582383 -1.395508
  H 5.168750 -0.096641 -0.188514
  H 5.073943 -2.367069 -3.527765
  H 5.075019 -0.763623 -4.170867
  H 2.660024 -0.496429 -3.576867
  H 2.658827 -2.147280 -2.915155
  H 3.292633 -1.398811 -5.806668
  H 1.794266 -2.115856 -5.228583
  H 3.291568 -3.035413 -5.150735
 31
 15.295507
  C 1.035019 0.091256 0.279862
  C 2.517646 0.115465 0.339027
  C 3.223843 0.606165 1.559007
  C 2.407023 1.085393 2.751708
  C 3.326326 1.540579 3.883377
  C 3.230798 -0.321855 -0.749236
  C 4.596472 -0.425724 -1.008293
  C 5.198900 -0.885716 -2.155126
  C 4.634239 -1.391972 -3.417852
  C 3.128621 -1.470309 -3.614892
  C 2.792925 -2.024739 -4.998977
  H 6.289354 -0.881912 -2.145407
  H 0.569284 0.455741 1.186201
  H 0.681190 -0.921146 0.091005
  H 0.680621 0.690575 -0.557378
  H 3.893910 1.416219 1.251265
  H 3.894538 -0.191140 1.897341
  H 1.770289 0.279470 3.123268
  H 1.769891 1.923975 2.462241
  H 3.962842 0.725390 4.220348
  H 2.740647 1.882111 4.733580
  H 3.962258 2.362592 3.562207
  H 2.337918 -0.527132 -1.259598
  H 5.252073 -0.108690 -0.217835
  H 5.075508 -2.386804 -3.585773
  H 5.076215 -0.789362 -4.226703
  H 2.692274 -0.477509 -3.518117
  H 2.691552 -2.121286 -2.859445
  H 3.198319 -1.389887 -5.783737
  H 1.715510 -2.078928 -5.135327
  H 3.197683 -3.026289 -5.128179
 31
 29.412513
  C 1.049497 0.085093 0.263424
  C 2.546130 0.111644 0.328700
  C 3.222426 0.611176 1.571643
  C 2.388500 1.086408 2.754582
  C 3.288993 1.546204 3.898472
  C 3.296067 -0.326760 -0.762729
  C 4.645065 -0.436959 -1.037313
  C 5.226731 -0.896647 -2.183232
  C 4.640455 -1.399905 -3.437917
  C 3.125829 -1.468916 -3.611006
  C 2.763044 -2.020605 -4.987424
  H 6.318424 -0.897086 -2.184146
  H 0.583561 0.449297 1.169554
  H 0.690104 -0.930424 0.076058
  H 0.689736 0.688136 -0.574594
  H 3.896019 1.424778 1.273579
  H 3.896334 -0.182294 1.919084
  H 1.752057 0.277085 3.118480
  H 1.751821 1.922484 2.457342
  H 3.925408 0.733932 4.243846
  H 2.689854 1.884601 4.741013
  H 3.925026 2.371917 3.585654
  H 2.315022 -0.478611 -1.140603
  H 5.311766 -0.121618 -0.250919
  H 5.075065 -2.399926 -3.613210
  H 5.075523 -0.798887 -4.255767
  H 2.697802 -0.472118 -3.505578
  H 2.697348 -2.116763 -2.846117
  H 3.159545 -1.388281 -5.779660
  H 1.682587 -2.067799 -5.105759
  H 3.159114 -3.025238 -5.123453
 31
 44.785704
  C 1.107853 0.069712 0.225485
  C 2.581164 0.099435 0.298418
  C 3.225040 0.605059 1.556434
  C 2.356126 1.073426 2.721978
  C 3.221610 1.541354 3.885857
  C 3.368145 -0.328554 -0.766782
  C 4.714676 -0.440476 -1.045257
  C 5.270992 -0.908839 -2.213035
  C 4.643063 -1.402643 -3.444688
  C 3.121827 -1.448614 -3.560208
  C 2.697846 -1.993589 -4.920595
  H 6.346274 -0.921750 -2.244947
  H 0.644261 0.435948 1.136734
  H 0.744152 -0.955717 0.041254
  H 0.743590 0.682008 -0.617149
  H 3.901199 1.425833 1.271216
  H 3.901392 -0.184682 1.918181
  H 1.719233 0.259147 3.070076
  H 1.719056 1.902153 2.409695
  H 3.857160 0.735589 4.246883
  H 2.598560 1.873552 4.712703
  H 3.856795 2.373094 3.588713
  H 2.355288 -0.444113 -1.054557
  H 5.410504 -0.125286 -0.258758
  H 5.055953 -2.404635 -3.634022
  H 5.056383 -0.809585 -4.273776
  H 2.712991 -0.443311 -3.436772
  H 2.712619 -2.090533 -2.776673
  H 3.073030 -1.367365 -5.727497
  H 1.613849 -2.023924 -4.996729
  H 3.072647 -3.003571 -5.071861
 31
 57.853291
  C 1.074323 0.062633 0.216158
  C 2.558892 0.094912 0.292243
  C 3.206828 0.604234 1.554803
  C 2.354489 1.075202 2.724235
  C 3.237496 1.541491 3.878882
  C 3.359229 -0.339464 -0.786734
  C 4.708012 -0.445309 -1.051023
  C 5.270014 -0.913112 -2.218724
  C 4.644785 -1.402739 -3.443920
  C 3.134495 -1.443920 -3.552176
  C 2.705594 -1.984776 -4.906356
  H 6.361757 -0.926710 -2.250724
  H 0.614974 0.425355 1.117259
  H 0.711121 -0.950502 0.036117
  H 0.709259 0.666965 -0.615798
  H 3.880827 1.418484 1.265063
  H 3.881973 -0.182625 1.910092
  H 1.718480 0.263639 3.081566
  H 1.717396 1.906995 2.418902
  H 3.874191 0.733448 4.233443
  H 2.625228 1.877408 4.713069
  H 3.872780 2.370342 3.573322
  H 2.323783 -0.414888 -0.973089
  H 5.394783 -0.133828 -0.272944
  H 5.054010 -2.403216 -3.633294
  H 5.056137 -0.810110 -4.270851
  H 2.732489 -0.443170 -3.424834
  H 2.730288 -2.080022 -2.770483
  H 3.079380 -1.359359 -5.713373
  H 1.622025 -2.011908 -4.977769
  H 3.077233 -2.995047 -5.059517
 31
 68.866625
  C 1.048478 0.064169 0.229060
  C 2.534289 0.089964 0.283426
  C 3.200679 0.601787 1.546628
  C 2.357284 1.075836 2.723043
  C 3.249340 1.541387 3.871010
  C 3.341846 -0.349340 -0.804455
  C 4.698694 -0.446285 -1.045798
  C 5.273757 -0.910643 -2.206855
  C 4.655179 -1.401626 -3.440054
  C 3.142307 -1.442342 -3.552643
  C 2.711217 -1.986561 -4.919024
  H 6.350013 -0.921637 -2.229330
  H 0.600209 0.436718 1.153404
  H 0.675905 -0.952176 0.055472
  H 0.672024 0.672999 -0.601289
  H 3.874060 1.413404 1.250852
  H 3.876747 -0.186155 1.896031
  H 1.722366 0.265131 3.085556
  H 1.719795 1.908799 2.421292
  H 3.886100 0.733550 4.221060
  H 2.644803 1.878631 4.708279
  H 3.883054 2.367572 3.560699
  H 2.280754 -0.393777 -0.914170
  H 5.378475 -0.133859 -0.260420
  H 5.065400 -2.402513 -3.627194
  H 5.069879 -0.806671 -4.264613
  H 2.740206 -0.435439 -3.423370
  H 2.735734 -2.081597 -2.766386
  H 3.086726 -1.361012 -5.726125
  H 1.626814 -2.013305 -4.993284
  H 3.082447 -2.997798 -5.073039
 31
 77.464329
  C 1.022577 0.032449 0.255667
  C 2.522235 0.072812 0.268274
  C 3.202713 0.602354 1.510759
  C 2.350985 1.071586 2.682596
  C 3.245920 1.553405 3.817772
  C 3.340678 -0.378575 -0.801387
  C 4.706333 -0.481289 -1.034887
  C 5.294136 -0.928282 -2.183290
  C 4.671452 -1.403335 -3.428359
  C 3.153471 -1.412312 -3.530146
  C 2.699272 -1.935793 -4.885826
  H 6.379063 -0.951431 -2.195999
  H 0.610951 0.409185 1.178193
  H 0.648499 -0.988007 0.112632
  H 0.617380 0.635952 -0.563329
  H 3.860536 1.429313 1.207073
  H 3.884886 -0.184406 1.861687
  H 1.729681 0.255947 3.053548
  H 1.702952 1.894926 2.380052
  H 3.895264 0.753727 4.168239
  H 2.641072 1.888264 4.656857
  H 3.868284 2.386416 3.497026
  H 2.249857 -0.398410 -0.869018
  H 5.372835 -0.196938 -0.229687
  H 5.060027 -2.409136 -3.621710
  H 5.089737 -0.804618 -4.244197
  H 2.772905 -0.399568 -3.393601
  H 2.740354 -2.049212 -2.745739
  H 3.081529 -1.311147 -5.692870
  H 1.612248 -1.939440 -4.948890
  H 3.049770 -2.954864 -5.048046
 31
 80.037619
  C 1.020516 -0.100614 0.238044
  C 2.537641 0.000057 0.219815
  C 3.227237 0.615703 1.463605
  C 2.335203 1.079661 2.604455
  C 3.215357 1.623589 3.729377
  C 3.391783 -0.462615 -0.740503
  C 4.756567 -0.588763 -0.999647
  C 5.343928 -0.992603 -2.139615
  C 4.687004 -1.410252 -3.407586
  C 3.170723 -1.325683 -3.459934
  C 2.626651 -1.787742 -4.809499
  H 6.424483 -1.051452 -2.154914
  H 0.623366 0.310660 1.161318
  H 0.675254 -1.135589 0.160437
  H 0.584466 0.466289 -0.587535
  H 3.840458 1.462431 1.148902
  H 3.914554 -0.145807 1.833451
  H 1.743957 0.251103 2.996679
  H 1.662835 1.873412 2.277257
  H 3.890500 0.856078 4.102524
  H 2.592692 1.958028 4.556048
  H 3.809044 2.469143 3.388046
  H 2.261989 -0.489747 -0.847561
  H 5.412580 -0.373545 -0.150597
  H 5.018880 -2.437985 -3.635912
  H 5.116801 -0.787547 -4.211206
  H 2.858259 -0.297973 -3.290407
  H 2.751007 -1.962437 -2.680687
  H 3.011605 -1.170596 -5.608518
  H 1.548020 -1.725572 -4.828119
  H 2.907556 -2.812354 -5.007495
 31
 82.609365
  C 1.054740 -0.165014 0.221540
  C 2.587829 -0.035366 0.212601
  C 3.236281 0.626659 1.472144
  C 2.306258 1.092140 2.581189
  C 3.145170 1.682490 3.710229
  C 3.479667 -0.505600 -0.688738
  C 4.825566 -0.663786 -0.994068
  C 5.376100 -1.056376 -2.164078
  C 4.679263 -1.416744 -3.414544
  C 3.168249 -1.282180 -3.415930
  C 2.569487 -1.696907 -4.762289
  H 6.455733 -1.143604 -2.212649
  H 0.651757 0.262405 1.134435
  H 0.732099 -1.217583 0.173306
  H 0.605184 0.378445 -0.623642
  H 3.832574 1.481413 1.132468
  H 3.931158 -0.118444 1.874177
  H 1.730858 0.259433 2.981931
  H 1.625029 1.861416 2.222278
  H 3.830196 0.941309 4.114936
  H 2.495840 2.019296 4.514554
  H 3.724243 2.534354 3.361991
  H 2.304928 -0.537327 -0.817065
  H 5.488258 -0.486113 -0.164114
  H 4.961873 -2.443767 -3.672250
  H 5.098289 -0.789575 -4.211351
  H 2.896330 -0.247204 -3.216631
  H 2.751084 -1.925991 -2.638475
  H 2.953852 -1.070336 -5.564243
  H 1.486324 -1.599654 -4.747244
  H 2.813856 -2.731859 -4.992305
 31
 85.067100
  C 1.091781 -0.253013 0.221567
  C 2.630575 -0.073751 0.224817
  C 3.233373 0.639881 1.473526
  C 2.275286 1.114062 2.554599
  C 3.084672 1.761884 3.680845
  C 3.552298 -0.568290 -0.636379
  C 4.884020 -0.756693 -0.973928
  C 5.392577 -1.125421 -2.166492
  C 4.657061 -1.421058 -3.422988
  C 3.147152 -1.236608 -3.396130
  C 2.523086 -1.587673 -4.737093
  H 6.464667 -1.243961 -2.240502
  H 0.669870 0.195396 1.119534
  H 0.806003 -1.301750 0.209315
  H 0.637222 0.242567 -0.634392
  H 3.808024 1.491952 1.116805
  H 3.934688 -0.069372 1.905522
  H 1.716221 0.277544 2.974801
  H 1.579571 1.857097 2.163653
  H 3.783003 1.052010 4.117056
  H 2.415968 2.106036 4.466772
  H 3.646793 2.617430 3.315248
  H 2.351497 -0.599080 -0.766160
  H 5.577488 -0.629274 -0.143767
  H 4.896533 -2.445504 -3.717672
  H 5.081683 -0.784643 -4.204606
  H 2.912708 -0.198091 -3.160461
  H 2.720187 -1.890738 -2.632629
  H 2.914932 -0.952930 -5.520161
  H 1.451145 -1.457591 -4.704815
  H 2.730275 -2.616100 -5.000362
 31
 87.035888
  C 1.107346 -0.341043 0.250147
  C 2.637251 -0.113159 0.243023
  C 3.224466 0.655260 1.469374
  C 2.252242 1.145002 2.537161
  C 3.047582 1.851557 3.645957
  C 3.577524 -0.642465 -0.586371
  C 4.896974 -0.856490 -0.943427
  C 5.384100 -1.194148 -2.157213
  C 4.639912 -1.418149 -3.417173
  C 3.134325 -1.188088 -3.384863
  C 2.497119 -1.476298 -4.750031
  H 6.453978 -1.337651 -2.242756
  H 0.680802 0.130729 1.118595
  H 0.854095 -1.401415 0.285755
  H 0.639297 0.101998 -0.626402
  H 3.785547 1.518070 1.083308
  H 3.949125 -0.028986 1.931200
  H 1.711861 0.307646 2.985541
  H 1.536967 1.860712 2.118561
  H 3.766421 1.169499 4.108911
  H 2.370146 2.206816 4.421273
  H 3.591845 2.711171 3.251010
  H 2.379502 -0.673835 -0.705292
  H 5.608214 -0.781774 -0.116218
  H 4.848454 -2.443531 -3.751504
  H 5.085702 -0.765190 -4.177088
  H 2.932133 -0.151883 -3.111570
  H 2.688125 -1.853477 -2.645384
  H 2.914069 -0.818763 -5.519883
  H 1.415715 -1.313376 -4.714731
  H 2.676222 -2.515521 -5.053527
 31
 88.465289
  C 1.093549 -0.429777 0.305569
  C 2.619180 -0.163510 0.261290
  C 3.209626 0.662509 1.442323
  C 2.242180 1.173672 2.502841
  C 3.033982 1.939794 3.573652
  C 3.575292 -0.725307 -0.545490
  C 4.885792 -0.959236 -0.906971
  C 5.370007 -1.257639 -2.136481
  C 4.627148 -1.405588 -3.408534
  C 3.128451 -1.138643 -3.376836
  C 2.501258 -1.350067 -4.749598
  H 6.435770 -1.422390 -2.222196
  H 0.667722 0.072703 1.167665
  H 0.869690 -1.492849 0.389529
  H 0.601113 -0.034605 -0.583357
  H 3.746380 1.519215 1.022270
  H 3.952443 0.017447 1.919370
  H 1.725148 0.343168 2.989331
  H 1.506292 1.855728 2.065596
  H 3.776940 1.288336 4.055723
  H 2.354839 2.311860 4.347043
  H 3.557060 2.798898 3.137075
  H 2.371938 -0.745554 -0.650770
  H 5.597216 -0.940502 -0.081014
  H 4.811380 -2.417311 -3.786351
  H 5.095565 -0.734421 -4.137625
  H 2.949167 -0.108689 -3.058649
  H 2.658326 -1.824546 -2.668573
  H 2.938324 -0.674953 -5.482936
  H 1.430307 -1.162973 -4.716869
  H 2.656289 -2.373177 -5.094865
 31
 89.878067
  C 1.058764 -0.506243 0.356381
  C 2.574539 -0.213371 0.270849
  C 3.191184 0.665088 1.399509
  C 2.242212 1.211113 2.469672
  C 3.052064 2.027454 3.490116
  C 3.540177 -0.805799 -0.511363
  C 4.846483 -1.053910 -0.858740
  C 5.346480 -1.310501 -2.092907
  C 4.621477 -1.383747 -3.384120
  C 3.127409 -1.091076 -3.360951
  C 2.516072 -1.223950 -4.756426
  H 6.412014 -1.489849 -2.167278
  H 0.640481 0.023695 1.208821
  H 0.857633 -1.569327 0.483438
  H 0.542352 -0.157324 -0.534012
  H 3.707981 1.511829 0.933444
  H 3.953701 0.046933 1.880878
  H 1.745709 0.392542 3.002598
  H 1.485129 1.869212 2.023619
  H 3.808897 1.408300 3.974299
  H 2.393489 2.419892 4.261335
  H 3.550937 2.868817 3.010777
  H 2.336686 -0.807044 -0.609442
  H 5.548947 -1.082124 -0.016362
  H 4.795475 -2.384919 -3.810622
  H 5.116570 -0.686360 -4.078183
  H 2.961781 -0.080068 -2.996485
  H 2.636450 -1.796804 -2.698036
  H 2.975982 -0.522773 -5.448239
  H 1.449464 -1.019538 -4.730307
  H 2.657916 -2.229851 -5.148694
