 23
 0.000000
  C 1.004253 0.112616 0.329627
  C 2.479470 0.126060 0.366091
  C 3.229924 0.603042 1.553875
  C 2.411600 1.082293 2.745498
  H 3.083078 1.399862 3.537359
  C 3.143030 -0.329781 -0.767310
  C 4.525446 -0.394086 -0.928378
  C 5.181832 -0.850013 -2.067036
  C 4.529672 -1.345031 -3.298248
  H 3.447928 -1.326830 -3.249540
  O 6.493007 -0.870812 -2.124680
  H 0.550174 0.479474 1.241364
  H 0.647813 -0.901228 0.138801
  H 0.649290 0.713174 -0.509826
  H 3.890700 1.417281 1.235826
  H 3.889815 -0.205432 1.887945
  H 1.783406 0.289187 3.141886
  H 1.784652 1.930068 2.482830
  H 2.519243 -0.658206 -1.585372
  H 5.149423 -0.064909 -0.108581
  H 4.872209 -2.361720 -3.496250
  H 4.870338 -0.746838 -4.144661
  H 6.946358 -0.547916 -1.324396
 23
 11.770683
  C 0.891726 0.116638 0.339634
  C 2.509152 0.130177 0.376422
  C 3.248249 0.605621 1.560156
  C 2.423272 1.083039 2.747411
  H 3.090084 1.402610 3.544097
  C 3.153304 -0.327442 -0.761442
  C 4.537716 -0.397718 -0.937363
  C 5.172531 -0.855001 -2.079274
  C 4.533559 -1.347641 -3.304845
  H 3.453072 -1.330357 -3.258582
  O 6.601644 -0.878688 -2.144167
  H 0.450429 0.484485 1.253921
  H 0.544944 -0.896801 0.151874
  H 0.546362 0.718982 -0.497322
  H 3.909207 1.420867 1.244432
  H 3.908512 -0.201839 1.896562
  H 1.794488 0.288163 3.139729
  H 1.795570 1.929169 2.480635
  H 2.518174 -0.653150 -1.572667
  H 5.172556 -0.071204 -0.124222
  H 4.878631 -2.363546 -3.502311
  H 4.876832 -0.749610 -4.150236
  H 7.040691 -0.554859 -1.341392
 23
 36.235471
  C 0.793940 0.114332 0.338636
  C 2.567795 0.136764 0.393447
  C 3.266988 0.616903 1.585212
  C 2.420015 1.088011 2.756823
  H 3.070571 1.414648 3.567840
  C 3.169123 -0.324602 -0.753574
  C 4.550219 -0.403852 -0.951543
  C 5.133120 -0.863586 -2.100501
  C 4.535818 -1.355990 -3.331671
  H 3.460474 -1.344024 -3.302367
  O 6.665819 -0.889433 -2.162897
  H 0.387958 0.485830 1.261747
  H 0.492334 -0.909173 0.164332
  H 0.492138 0.731675 -0.496019
  H 3.931557 1.436614 1.290339
  H 3.932599 -0.177667 1.940195
  H 1.789455 0.285971 3.136940
  H 1.788741 1.929428 2.475690
  H 2.516993 -0.645547 -1.552003
  H 5.201692 -0.083081 -0.151688
  H 4.892566 -2.363509 -3.526949
  H 4.892912 -0.761407 -4.167886
  H 7.050258 -0.563621 -1.346023
 23
 64.560645
  C 0.686009 0.115567 0.340196
  C 2.628871 0.144186 0.410649
  C 3.297393 0.626155 1.607496
  C 2.418233 1.088647 2.759991
  H 3.041480 1.419755 3.583878
  C 3.191063 -0.318802 -0.740140
  C 4.563171 -0.404484 -0.954511
  C 5.100997 -0.868848 -2.113305
  C 4.532578 -1.362674 -3.346150
  H 3.443846 -1.353465 -3.324541
  O 6.724322 -0.896422 -2.182358
  H 0.315676 0.491135 1.273541
  H 0.440067 -0.919029 0.166571
  H 0.439907 0.741557 -0.501613
  H 3.962243 1.455052 1.316807
  H 3.962637 -0.172970 1.971419
  H 1.787141 0.282295 3.120225
  H 1.786524 1.919754 2.462779
  H 2.528682 -0.635828 -1.527997
  H 5.225792 -0.087396 -0.165275
  H 4.899800 -2.375712 -3.539928
  H 4.900635 -0.764273 -4.185951
  H 7.066929 -0.564339 -1.351696
 23
 93.840341
  C 0.531709 0.121311 0.356417
  C 2.673914 0.155143 0.434853
  C 3.318330 0.635543 1.629350
  C 2.422284 1.091212 2.767816
  H 3.030975 1.427098 3.604099
  C 3.204528 -0.311428 -0.727191
  C 4.600060 -0.408546 -0.970695
  C 5.101435 -0.879451 -2.141836
  C 4.552248 -1.372571 -3.370401
  H 3.465899 -1.364498 -3.355310
  O 6.784926 -0.915241 -2.222794
  H 0.202419 0.502295 1.305716
  H 0.338289 -0.922711 0.186267
  H 0.336636 0.757310 -0.488458
  H 3.980606 1.462840 1.346724
  H 3.982141 -0.156653 1.996603
  H 1.789616 0.278392 3.114752
  H 1.787961 1.917617 2.457620
  H 2.525683 -0.625640 -1.507190
  H 5.279566 -0.094162 -0.189582
  H 4.922519 -2.382198 -3.560910
  H 4.925456 -0.777366 -4.206459
  H 7.113490 -0.573286 -1.366627
 23
 97.624260
  C 0.431676 0.132730 0.176110
  C 3.118295 0.109755 0.592707
  C 3.397084 0.571122 1.914735
  C 2.232752 1.121471 2.756966
  H 2.619774 1.483969 3.708095
  C 3.483312 -0.347982 -0.568352
  C 4.845338 -0.349962 -1.032765
  C 5.237359 -0.840279 -2.236404
  C 4.395228 -1.425764 -3.302448
  H 3.346795 -1.472895 -3.038405
  O 6.566528 -0.869113 -2.572807
  H 0.131553 0.510778 1.143237
  H 0.455918 -0.927419 0.004077
  H 0.540456 0.812395 -0.648013
  H 4.105877 1.404527 1.778594
  H 3.879277 -0.238543 2.484244
  H 1.513878 0.331688 2.962542
  H 1.742192 1.948490 2.246882
  H 2.753402 -0.705491 -1.282983
  H 5.580703 0.080427 -0.358644
  H 4.760262 -2.423802 -3.532734
  H 4.511845 -0.832303 -4.206626
  H 7.129904 -0.500672 -1.874154
 23
 101.088104
  C 0.374746 0.137990 0.094046
  C 3.320725 0.092547 0.700634
  C 3.439393 0.547264 2.036985
  C 2.174544 1.117184 2.703881
  H 2.430996 1.489007 3.686147
  C 3.629520 -0.349199 -0.461704
  C 4.969269 -0.355513 -1.035783
  C 5.259756 -0.830585 -2.254640
  C 4.293412 -1.420744 -3.236639
  H 3.280090 -1.481739 -2.859490
  O 6.517875 -0.827981 -2.722978
  H -0.000716 0.504260 1.022382
  H 0.429333 -0.924991 -0.076554
  H 0.560262 0.827905 -0.713684
  H 4.163023 1.377901 1.993256
  H 3.832470 -0.255445 2.670506
  H 1.433063 0.334702 2.813682
  H 1.767780 1.935790 2.122549
  H 2.865536 -0.719578 -1.131020
  H 5.748936 0.059786 -0.425672
  H 4.638205 -2.417751 -3.510058
  H 4.303874 -0.816665 -4.144403
  H 7.160561 -0.442779 -2.103758
 23
 102.113859
  C 0.295550 0.136728 0.033757
  C 3.476585 0.078616 0.802426
  C 3.480774 0.522933 2.131058
  C 2.145389 1.113799 2.653419
  H 2.294846 1.495209 3.656342
  C 3.745900 -0.350359 -0.376679
  C 5.034177 -0.344713 -1.034128
  C 5.246180 -0.819523 -2.280429
  C 4.229850 -1.407869 -3.192813
  H 3.249673 -1.477886 -2.752954
  O 6.466197 -0.817805 -2.829421
  H -0.162847 0.492973 0.924999
  H 0.376974 -0.916872 -0.132792
  H 0.544403 0.827841 -0.743129
  H 4.217195 1.351781 2.156296
  H 3.806675 -0.276743 2.805071
  H 1.389940 0.332817 2.685626
  H 1.804219 1.928070 2.015747
  H 2.951642 -0.721682 -0.999209
  H 5.854668 0.074244 -0.470088
  H 4.560799 -2.400276 -3.491269
  H 4.176336 -0.802864 -4.095355
  H 7.147233 -0.433401 -2.249343
 23
 101.986307
  C 0.171786 0.165141 -0.040052
  C 3.590058 0.072054 0.867792
  C 3.510777 0.486160 2.212794
  C 2.150583 1.103610 2.626843
  H 2.218830 1.476272 3.649929
  C 3.839141 -0.348230 -0.315352
  C 5.090918 -0.324112 -1.041230
  C 5.249558 -0.804457 -2.291805
  C 4.186517 -1.425238 -3.143082
  H 3.220658 -1.520264 -2.637270
  O 6.433939 -0.779423 -2.906392
  H -0.353199 0.510382 0.824701
  H 0.273180 -0.890876 -0.216498
  H 0.478619 0.869568 -0.793210
  H 4.257045 1.300532 2.305327
  H 3.768301 -0.332940 2.899128
  H 1.387183 0.341258 2.584433
  H 1.881338 1.931535 1.966632
  H 3.006045 -0.748001 -0.902480
  H 5.930326 0.117382 -0.522206
  H 4.521145 -2.409159 -3.457922
  H 4.064333 -0.830095 -4.036980
  H 7.137684 -0.373189 -2.372708
 23
 101.244138
  C -0.028847 0.253882 -0.107515
  C 3.665962 0.076394 0.900391
  C 3.538147 0.428533 2.254693
  C 2.184561 1.080170 2.620129
  H 2.212949 1.424474 3.649178
  C 3.910144 -0.357739 -0.274102
  C 5.126925 -0.295699 -1.049132
  C 5.249209 -0.795367 -2.295962
  C 4.201178 -1.471138 -3.106078
  H 3.266177 -1.596462 -2.575147
  O 6.384637 -0.741954 -2.928486
  H -0.568775 0.595348 0.752112
  H 0.056636 -0.791819 -0.294342
  H 0.306763 0.957504 -0.834222
  H 4.299409 1.214045 2.408476
  H 3.752600 -0.412733 2.922446
  H 1.389768 0.342653 2.517039
  H 1.974971 1.923141 1.973769
  H 3.071671 -0.805043 -0.808441
  H 5.966173 0.186193 -0.574976
  H 4.571823 -2.449983 -3.417642
  H 4.027289 -0.890768 -4.018126
  H 7.074704 -0.296129 -2.415227
 23
 101.483943
  C -0.162455 0.266864 -0.155932
  C 3.721623 0.038670 0.949895
  C 3.553268 0.394559 2.289992
  C 2.199113 1.075356 2.597804
  H 2.194838 1.416410 3.623950
  C 3.950394 -0.379870 -0.232048
  C 5.142076 -0.288803 -1.040779
  C 5.240457 -0.776560 -2.293076
  C 4.164942 -1.480302 -3.058507
  H 3.258876 -1.638124 -2.482961
  O 6.386379 -0.676257 -3.000156
  H -0.708457 0.606527 0.695930
  H -0.076708 -0.783423 -0.346468
  H 0.197693 0.975345 -0.873715
  H 4.329252 1.161019 2.471884
  H 3.720267 -0.453134 2.962275
  H 1.398480 0.359432 2.465770
  H 2.030811 1.925136 1.944359
  H 3.108326 -0.834359 -0.745346
  H 5.984287 0.206426 -0.587211
  H 4.546660 -2.440562 -3.396099
  H 3.929354 -0.901245 -3.946233
  H 7.095201 -0.222524 -2.512990
 23
 100.869527
  C -0.242233 0.273103 -0.198365
  C 3.872791 0.030261 1.038201
  C 3.559156 0.360177 2.361613
  C 2.181082 1.043076 2.512742
  H 2.057092 1.378018 3.543780
  C 4.054327 -0.370171 -0.162024
  C 5.187213 -0.268818 -1.044179
  C 5.211114 -0.754671 -2.301989
  C 4.098645 -1.462613 -2.991115
  H 3.233812 -1.626035 -2.354803
  O 6.306536 -0.651380 -3.088924
  H -0.790560 0.594415 0.657104
  H -0.146936 -0.771261 -0.404056
  H 0.139743 0.995940 -0.888015
  H 4.319040 1.113546 2.638240
  H 3.662903 -0.488193 3.040031
  H 1.390566 0.338933 2.275642
  H 2.090483 1.900291 1.848810
  H 3.173319 -0.845388 -0.606693
  H 6.053184 0.234215 -0.643930
  H 4.464027 -2.422788 -3.349578
  H 3.798374 -0.888893 -3.865406
  H 7.045737 -0.200678 -2.657024
 23
 99.778907
  C -0.494278 0.332518 -0.187401
  C 3.896458 -0.072808 1.071119
  C 3.544471 0.283391 2.374440
  C 2.227158 1.081332 2.473619
  H 2.084846 1.419556 3.491256
  C 4.100557 -0.434568 -0.136221
  C 5.196737 -0.251315 -1.046718
  C 5.224764 -0.733310 -2.309085
  C 4.150499 -1.531716 -2.977494
  H 3.325792 -1.772638 -2.321110
  O 6.265498 -0.526872 -3.113190
  H -1.016582 0.660760 0.685300
  H -0.449618 -0.708912 -0.415302
  H -0.093638 1.050081 -0.864960
  H 4.358398 0.959981 2.696618
  H 3.556121 -0.578193 3.049971
  H 1.393421 0.446101 2.196565
  H 2.240829 1.941443 1.817310
  H 3.260752 -0.995104 -0.543631
  H 6.030484 0.314813 -0.669846
  H 4.584536 -2.452298 -3.360685
  H 3.776739 -0.974672 -3.835520
  H 6.969222 -0.011247 -2.697526
 23
 99.140965
  C -0.788696 0.408247 -0.116380
  C 3.867601 -0.199028 1.070234
  C 3.512674 0.197398 2.362210
  C 2.281577 1.115987 2.449170
  H 2.161225 1.470380 3.464739
  C 4.099416 -0.528833 -0.143172
  C 5.169510 -0.239685 -1.052032
  C 5.241964 -0.708582 -2.319953
  C 4.246698 -1.589068 -3.006701
  H 3.442492 -1.912072 -2.358291
  O 6.274838 -0.416176 -3.111668
  H -1.257959 0.744833 0.780981
  H -0.800129 -0.629732 -0.361925
  H -0.366730 1.118185 -0.792774
  H 4.396899 0.776748 2.696325
  H 3.440487 -0.656367 3.041049
  H 1.391466 0.567983 2.166765
  H 2.383953 1.970901 1.790771
  H 3.308860 -1.154806 -0.555616
  H 5.948590 0.398377 -0.671947
  H 4.762029 -2.461871 -3.398387
  H 3.829267 -1.055810 -3.859166
  H 6.929370 0.151721 -2.684093
