 26
 0.000000
  C 0.987965 0.151910 0.420995
  C 2.461995 0.134584 0.393763
  C 3.234755 0.601472 1.559301
  H 2.623025 0.935755 2.387994
  C 3.071695 -0.330548 -0.765153
  C 4.447524 -0.412187 -0.976376
  C 5.118856 -0.863768 -2.108471
  C 4.614697 -1.385804 -3.407938
  C 3.124420 -1.507093 -3.701127
  C 2.913936 -2.070239 -5.104489
  O 6.439542 -0.858366 -2.105168
  H 0.586377 0.535434 1.353913
  H 0.594634 -0.853156 0.261768
  H 0.607832 0.764719 -0.397688
  H 3.889711 1.421520 1.258527
  H 3.886159 -0.201123 1.910619
  H 2.410811 -0.646542 -1.553570
  H 5.078041 -0.084548 -0.158460
  H 5.076096 -2.371971 -3.535362
  H 5.072142 -0.758784 -4.182091
  H 2.646020 -0.528508 -3.650420
  H 2.650157 -2.181678 -2.987611
  H 3.355592 -1.420527 -5.856390
  H 1.851741 -2.158482 -5.317946
  H 3.359761 -3.057513 -5.200119
  H 6.834469 -0.526118 -1.277136
 26
 0.735913
  C 1.040694 -0.189851 0.661630
  C 2.455799 0.111632 0.375796
  C 3.179150 1.074290 1.226561
  H 2.574176 1.401817 2.066443
  C 3.046958 -0.508684 -0.718176
  C 4.420093 -0.568027 -0.940351
  C 5.109181 -1.131653 -2.010936
  C 4.616574 -1.537535 -3.354323
  C 3.146079 -1.394979 -3.724377
  C 2.949792 -1.721009 -5.203227
  O 6.412478 -1.303896 -1.918094
  H 0.717670 0.225181 1.611410
  H 0.884555 -1.268549 0.664413
  H 0.399367 0.208672 -0.126542
  H 3.460073 1.948737 0.637507
  H 4.109142 0.652768 1.605927
  H 2.385435 -1.024494 -1.393743
  H 5.047875 -0.203823 -0.136071
  H 4.931839 -2.574333 -3.511897
  H 5.214740 -0.957211 -4.068521
  H 2.807757 -0.373475 -3.542520
  H 2.538267 -2.088824 -3.141698
  H 3.521956 -1.042892 -5.831325
  H 1.902146 -1.628295 -5.475260
  H 3.266352 -2.737542 -5.422354
  H 6.801911 -1.038045 -1.064126
 26
 5.467508
  C 1.179288 -0.436067 0.923913
  C 2.433130 0.112131 0.374637
  C 3.061673 1.288735 0.993248
  H 2.563934 1.583689 1.915193
  C 2.993794 -0.505503 -0.744295
  C 4.356038 -0.703571 -0.909099
  C 5.052633 -1.303312 -1.953718
  C 4.606834 -1.604357 -3.339749
  C 3.180965 -1.288999 -3.775702
  C 3.012310 -1.592438 -5.261838
  O 6.315184 -1.646360 -1.778850
  H 0.956389 -0.020963 1.899894
  H 1.274023 -1.517487 0.998076
  H 0.334200 -0.236389 0.266291
  H 3.019121 2.120614 0.290014
  H 4.123656 1.127518 1.185219
  H 2.305083 -0.923034 -1.460621
  H 4.963871 -0.459367 -0.043727
  H 4.816047 -2.663993 -3.523342
  H 5.304370 -1.065691 -3.994227
  H 2.959324 -0.236560 -3.605211
  H 2.472368 -1.903598 -3.224224
  H 3.692375 -0.990700 -5.862185
  H 1.993576 -1.371890 -5.581783
  H 3.212363 -2.642963 -5.469227
  H 6.669373 -1.456680 -0.890628
 26
 14.491799
  C 1.383254 -0.551809 1.129124
  C 2.429877 0.163116 0.383082
  C 2.924442 1.471344 0.827334
  H 2.504602 1.769361 1.782669
  C 2.958206 -0.433980 -0.785070
  C 4.283474 -0.795430 -0.887907
  C 4.990679 -1.390048 -1.927761
  C 4.593475 -1.612803 -3.347407
  C 3.217689 -1.170872 -3.835508
  C 3.075911 -1.461656 -5.327096
  O 6.209231 -1.850586 -1.700632
  H 1.250209 -0.132898 2.122380
  H 1.672477 -1.600124 1.201092
  H 0.418881 -0.515726 0.616924
  H 2.661128 2.215933 0.073235
  H 4.015396 1.491920 0.878000
  H 2.258918 -0.651536 -1.579417
  H 4.857122 -0.674318 0.026726
  H 4.720686 -2.682939 -3.551154
  H 5.363023 -1.119219 -3.953480
  H 3.088229 -0.099612 -3.674974
  H 2.436809 -1.718334 -3.308102
  H 3.829083 -0.928129 -5.900221
  H 2.097767 -1.150017 -5.683334
  H 3.185485 -2.524535 -5.527314
  H 6.527207 -1.718359 -0.788782
 26
 26.296423
  C 1.644782 -0.662351 1.291320
  C 2.460772 0.178562 0.416474
  C 2.726689 1.588561 0.721695
  H 2.332375 1.881537 1.684974
  C 2.990745 -0.392776 -0.799801
  C 4.245809 -0.925454 -0.860815
  C 4.939940 -1.507874 -1.927545
  C 4.561699 -1.643843 -3.361608
  C 3.233903 -1.087651 -3.861642
  C 3.093321 -1.343946 -5.360714
  O 6.117404 -2.071366 -1.695239
  H 1.562762 -0.234115 2.288721
  H 2.079795 -1.660349 1.337520
  H 0.628199 -0.776459 0.898761
  H 2.276785 2.209134 -0.058376
  H 3.793171 1.811576 0.676721
  H 2.337292 -0.379708 -1.658660
  H 4.789639 -0.936542 0.077943
  H 4.611646 -2.713350 -3.599711
  H 5.379078 -1.191274 -3.935869
  H 3.189049 -0.011947 -3.689469
  H 2.404678 -1.578815 -3.352472
  H 3.896614 -0.863708 -5.913944
  H 2.149679 -0.950057 -5.726222
  H 3.120855 -2.408457 -5.576514
  H 6.418078 -2.003498 -0.770999
 26
 16.320258
  C 1.944929 -0.725089 1.411989
  C 2.538882 0.175156 0.416129
  C 2.485863 1.633247 0.603810
  H 2.066574 1.901989 1.563025
  C 3.110529 -0.341746 -0.775994
  C 4.279558 -1.076649 -0.823849
  C 4.906065 -1.635428 -1.932988
  C 4.504706 -1.669008 -3.369337
  C 3.214078 -1.009388 -3.844316
  C 3.056379 -1.205683 -5.348534
  O 6.057957 -2.269114 -1.764608
  H 1.862339 -0.262854 2.387402
  H 2.449408 -1.683275 1.476155
  H 0.931821 -0.957587 1.072278
  H 1.895563 2.111250 -0.188616
  H 3.488197 2.051505 0.506515
  H 2.588831 -0.096350 -1.688336
  H 4.790653 -1.214100 0.118979
  H 4.485850 -2.730000 -3.651355
  H 5.346471 -1.245059 -3.931622
  H 3.239864 0.062269 -3.641925
  H 2.354304 -1.460910 -3.347719
  H 3.887032 -0.761903 -5.886457
  H 2.141774 -0.739465 -5.697235
  H 3.013723 -2.260242 -5.599512
  H 6.379925 -2.277596 -0.845035
 26
 6.074991
  C 2.240698 -0.732797 1.484442
  C 2.625560 0.185476 0.406001
  C 2.259939 1.612634 0.514436
  H 1.808110 1.843792 1.472350
  C 3.235961 -0.268426 -0.765270
  C 4.294760 -1.167496 -0.822316
  C 4.879693 -1.722300 -1.954639
  C 4.457852 -1.685409 -3.382272
  C 3.215129 -0.921843 -3.823938
  C 2.998060 -1.111622 -5.323687
  O 5.979698 -2.444587 -1.820861
  H 2.198249 -0.240054 2.451629
  H 2.842876 -1.634992 1.526280
  H 1.224658 -1.071236 1.257103
  H 1.569792 1.900720 -0.281059
  H 3.145088 2.230537 0.372946
  H 2.887276 0.179643 -1.682431
  H 4.753498 -1.428125 0.126772
  H 4.349419 -2.735384 -3.680637
  H 5.320681 -1.323361 -3.952580
  H 3.336296 0.144615 -3.634158
  H 2.337027 -1.292328 -3.296705
  H 3.850257 -0.742032 -5.889632
  H 2.114828 -0.568684 -5.650336
  H 2.857191 -2.162164 -5.566943
  H 6.311083 -2.513222 -0.906528
 26
 1.127900
  C 2.531912 -0.682579 1.554478
  C 2.702722 0.199197 0.389179
  C 2.034066 1.515827 0.409484
  H 1.568420 1.721246 1.367233
  C 3.369825 -0.188636 -0.762709
  C 4.315952 -1.211985 -0.842589
  C 4.864497 -1.787710 -1.983069
  C 4.427262 -1.693739 -3.402768
  C 3.249258 -0.815279 -3.805582
  C 2.923542 -1.029655 -5.282030
  O 5.884576 -2.615881 -1.862882
  H 2.589810 -0.125066 2.487993
  H 3.214536 -1.525212 1.563807
  H 1.519344 -1.095357 1.509555
  H 1.271566 1.564945 -0.368870
  H 2.747313 2.306002 0.177142
  H 3.172869 0.395422 -1.648734
  H 4.715451 -1.581475 0.095270
  H 4.213324 -2.725926 -3.707706
  H 5.308664 -1.411903 -3.989734
  H 3.493215 0.237408 -3.662963
  H 2.369808 -1.067896 -3.212364
  H 3.775797 -0.776657 -5.909004
  H 2.087372 -0.401999 -5.580313
  H 2.653264 -2.065632 -5.475486
  H 6.214739 -2.731335 -0.952980
 26
 3.011391
  C 2.436486 -0.811565 1.274389
  C 2.755677 0.229217 0.282598
  C 2.042897 1.520702 0.354977
  H 1.629438 1.697454 1.342940
  C 3.613824 -0.018633 -0.769122
  C 4.526971 -1.087206 -0.835767
  C 4.992087 -1.730807 -1.972010
  C 4.422285 -1.703708 -3.346194
  C 3.263135 -0.772431 -3.675170
  C 2.723450 -1.079042 -5.069455
  O 5.986262 -2.594251 -1.884208
  H 2.317521 -0.396503 2.271711
  H 3.165011 -1.614885 1.259848
  H 1.475768 -1.259080 1.006968
  H 1.212128 1.520161 -0.354195
  H 2.691107 2.346338 0.068803
  H 3.611391 0.693847 -1.581705
  H 4.987251 -1.386261 0.099639
  H 4.118931 -2.735732 -3.560867
  H 5.253041 -1.512626 -4.033875
  H 3.593996 0.265681 -3.657521
  H 2.459721 -0.901129 -2.948936
  H 3.497044 -0.949571 -5.822735
  H 1.901526 -0.410892 -5.312852
  H 2.356807 -2.101100 -5.129738
  H 6.395236 -2.661699 -1.001456
 26
 9.323301
  C 2.384838 -0.916549 0.898179
  C 2.778137 0.285871 0.138643
  C 2.072482 1.563606 0.353579
  H 1.611023 1.598727 1.335967
  C 3.769308 0.153748 -0.797964
  C 4.671872 -0.951104 -0.824712
  C 5.072867 -1.672543 -1.930994
  C 4.406640 -1.716763 -3.261429
  C 3.214515 -0.805941 -3.523924
  C 2.566608 -1.153358 -4.861329
  O 6.045672 -2.562871 -1.841659
  H 2.107136 -0.701278 1.924389
  H 3.191821 -1.641950 0.796776
  H 1.531840 -1.395191 0.409579
  H 1.271080 1.667123 -0.381347
  H 2.736710 2.413744 0.221329
  H 3.912408 0.941704 -1.525356
  H 5.270940 -1.074053 0.071768
  H 4.109235 -2.759963 -3.422262
  H 5.180353 -1.531716 -4.014330
  H 3.533115 0.235034 -3.556242
  H 2.474100 -0.918924 -2.730394
  H 3.271046 -1.021476 -5.679433
  H 1.710840 -0.509344 -5.046969
  H 2.221997 -2.184959 -4.871970
  H 6.516154 -2.571360 -0.988207
 26
 17.397186
  C 2.445063 -0.958202 0.733772
  C 2.760851 0.315297 0.045082
  C 2.006890 1.548509 0.340835
  H 1.483728 1.468461 1.289021
  C 3.806297 0.265319 -0.831394
  C 4.706616 -0.862128 -0.815035
  C 5.092029 -1.623181 -1.900267
  C 4.388518 -1.723956 -3.208292
  C 3.217549 -0.792296 -3.480065
  C 2.512258 -1.189114 -4.773805
  O 6.117744 -2.453349 -1.821206
  H 2.147618 -0.840888 1.768814
  H 3.340214 -1.570918 0.530943
  H 1.694034 -1.541021 0.198031
  H 1.249481 1.708526 -0.429306
  H 2.653039 2.421167 0.347037
  H 4.041694 1.104597 -1.467614
  H 5.392414 -0.861443 0.032409
  H 4.061117 -2.764140 -3.312828
  H 5.145128 -1.594495 -3.989539
  H 3.565861 0.234929 -3.577855
  H 2.501269 -0.837843 -2.659161
  H 3.179771 -1.082612 -5.628555
  H 1.647890 -0.557240 -4.941630
  H 2.172437 -2.222142 -4.733437
  H 6.556116 -2.483463 -0.951914
 26
 33.704286
  C 2.526198 -0.926136 0.575076
  C 2.785982 0.402730 0.008163
  C 1.970709 1.584680 0.394186
  H 1.483282 1.422075 1.350909
  C 3.834164 0.407154 -0.848459
  C 4.653798 -0.810935 -0.755807
  C 5.054946 -1.599052 -1.843877
  C 4.383177 -1.697773 -3.164170
  C 3.145852 -0.847059 -3.426430
  C 2.513118 -1.239395 -4.758291
  O 6.043377 -2.459572 -1.717719
  H 2.201953 -0.961428 1.604793
  H 3.630820 -1.392472 0.176613
  H 2.001380 -1.638900 -0.055467
  H 1.182175 1.734477 -0.346964
  H 2.573734 2.486238 0.426314
  H 4.073209 1.208284 -1.526224
  H 5.427773 -0.700369 0.005160
  H 4.124892 -2.754600 -3.303436
  H 5.138504 -1.496992 -3.929485
  H 3.411444 0.207235 -3.468968
  H 2.412708 -0.988795 -2.632543
  H 3.193293 -1.040265 -5.582662
  H 1.604104 -0.669146 -4.930171
  H 2.259189 -2.297184 -4.773594
  H 6.515831 -2.439294 -0.860238
 26
 40.065699
  C 2.430105 -0.914843 0.502069
  C 2.738573 0.385089 -0.022461
  C 1.927956 1.577857 0.368412
  H 1.361626 1.382060 1.274389
  C 3.821045 0.425826 -0.836424
  C 4.679697 -0.790046 -0.726957
  C 5.117912 -1.541633 -1.862615
  C 4.397413 -1.681308 -3.148632
  C 3.129451 -0.864756 -3.373211
  C 2.478842 -1.262576 -4.695216
  O 6.189344 -2.282940 -1.796219
  H 2.015451 -0.985681 1.496744
  H 3.912022 -1.389658 -0.009583
  H 2.086647 -1.690747 -0.166265
  H 1.218228 1.805423 -0.426101
  H 2.556812 2.451023 0.518598
  H 4.125033 1.280823 -1.412816
  H 5.484450 -0.615110 -0.005492
  H 4.164351 -2.747313 -3.261838
  H 5.115120 -1.473347 -3.949877
  H 3.364351 0.197587 -3.407403
  H 2.416963 -1.034959 -2.567711
  H 3.155390 -1.090641 -5.529029
  H 1.579249 -0.677165 -4.865980
  H 2.201402 -2.314140 -4.692590
  H 6.690936 -2.235657 -0.959227
 26
 34.512425
  C 2.215963 -0.876264 0.498049
  C 2.685652 0.334011 -0.023058
  C 1.950636 1.608588 0.278819
  H 1.300975 1.487759 1.140647
  C 3.830672 0.349242 -0.775779
  C 4.722221 -0.845212 -0.691953
  C 5.200022 -1.481596 -1.909253
  C 4.452414 -1.584008 -3.176543
  C 3.082243 -0.923857 -3.281436
  C 2.436164 -1.269437 -4.620429
  O 6.341531 -2.087049 -1.928940
  H 1.612415 -0.871517 1.391134
  H 4.098289 -1.540000 -0.073797
  H 2.117435 -1.761234 -0.105382
  H 1.329058 1.866870 -0.576991
  H 2.635435 2.432273 0.461571
  H 4.160815 1.225827 -1.305897
  H 5.553833 -0.617228 -0.014015
  H 4.349688 -2.655960 -3.387775
  H 5.104515 -1.215480 -3.977112
  H 3.174990 0.158467 -3.208136
  H 2.430941 -1.267623 -2.479730
  H 3.050343 -0.926507 -5.449635
  H 1.462676 -0.793795 -4.704249
  H 2.295641 -2.343102 -4.720614
  H 6.864059 -2.064515 -1.101340
 26
 29.806244
  C 2.068504 -0.845244 0.487217
  C 2.612724 0.312539 -0.014937
  C 1.961092 1.634537 0.287362
  H 1.352724 1.565731 1.184197
  C 3.772170 0.309406 -0.779323
  C 4.736437 -0.818625 -0.696326
  C 5.225178 -1.440861 -1.930868
  C 4.480772 -1.530901 -3.199027
  C 3.058290 -0.986183 -3.263459
  C 2.448923 -1.275468 -4.633163
  O 6.393006 -1.993681 -1.964214
  H 1.282446 -0.807033 1.221060
  H 4.297490 -1.572252 -0.020558
  H 2.258497 -1.819096 0.072824
  H 1.309325 1.916608 -0.538366
  H 2.699115 2.420436 0.419224
  H 4.066538 1.193580 -1.319539
  H 5.596881 -0.445758 -0.121337
  H 4.462424 -2.596416 -3.463428
  H 5.094273 -1.076007 -3.985952
  H 3.052136 0.090438 -3.101202
  H 2.439365 -1.451551 -2.497320
  H 3.023741 -0.799262 -5.423783
  H 1.432114 -0.895398 -4.681596
  H 2.417303 -2.344498 -4.829304
  H 6.914422 -1.982668 -1.133731
