 26
 0.000000
  C 0.969033 0.145596 0.419977
  C 2.442338 0.138008 0.393928
  C 3.221134 0.605432 1.554956
  H 2.628131 0.942340 2.394846
  C 3.046573 -0.329487 -0.768927
  C 4.422212 -0.413462 -0.975814
  C 5.111471 -0.863897 -2.097734
  C 4.618124 -1.385725 -3.401314
  C 3.129522 -1.504084 -3.701977
  C 2.928984 -2.066725 -5.106977
  O 6.430073 -0.857268 -2.077910
  H 0.562456 0.518904 1.354254
  H 0.591985 -0.863514 0.247655
  H 0.583670 0.755033 -0.398900
  H 3.875000 1.423323 1.244062
  H 3.876763 -0.198835 1.896132
  H 2.374007 -0.643122 -1.548495
  H 5.051107 -0.084942 -0.156763
  H 5.081538 -2.371491 -3.525511
  H 5.083945 -0.759835 -4.171494
  H 2.652898 -0.524769 -3.653134
  H 2.650575 -2.177643 -2.990960
  H 3.377731 -1.417187 -5.854809
  H 1.868938 -2.154792 -5.330506
  H 3.375526 -3.053992 -5.199021
  H 6.825503 -0.526737 -1.249814
 26
 2.066031
  C 1.006875 0.157021 0.352833
  C 2.479886 0.164602 0.408221
  C 3.213803 0.593591 1.611128
  H 2.541896 0.904229 2.403094
  C 3.068575 -0.298394 -0.750914
  C 4.439420 -0.389385 -0.980792
  C 5.123057 -0.853592 -2.113713
  C 4.611425 -1.389281 -3.409100
  C 3.118823 -1.509377 -3.685891
  C 2.896352 -2.085028 -5.082626
  O 6.447528 -0.846565 -2.108764
  H 0.522766 0.414770 1.290308
  H 0.723699 -0.850509 0.010878
  H 0.649609 0.834555 -0.426883
  H 3.883779 1.420022 1.373548
  H 3.844061 -0.215625 1.979215
  H 2.325461 -0.614770 -1.483500
  H 5.074790 -0.051070 -0.169484
  H 5.074328 -2.375564 -3.531659
  H 5.068074 -0.772463 -4.192030
  H 2.645639 -0.528766 -3.638744
  H 2.652597 -2.176699 -2.961172
  H 3.334644 -1.442887 -5.842995
  H 1.833103 -2.174879 -5.289981
  H 3.341671 -3.073142 -5.172246
  H 6.854045 -0.508139 -1.288882
 26
 6.592841
  C 1.055228 0.144898 0.281839
  C 2.504460 0.175844 0.413311
  C 3.187720 0.584908 1.631682
  H 2.491954 0.885444 2.402888
  C 3.100945 -0.290412 -0.752018
  C 4.452491 -0.382828 -0.994309
  C 5.121627 -0.845268 -2.114327
  C 4.599159 -1.386941 -3.399298
  C 3.102652 -1.508431 -3.654127
  C 2.858597 -2.089375 -5.045102
  O 6.452775 -0.834310 -2.116557
  H 0.496444 0.288929 1.190270
  H 0.886730 -0.812600 -0.209439
  H 0.740612 0.889512 -0.438448
  H 3.868185 1.417126 1.427115
  H 3.802988 -0.236064 2.007808
  H 2.311302 -0.599821 -1.424772
  H 5.089373 -0.036582 -0.185677
  H 5.061944 -2.372840 -3.523896
  H 5.045826 -0.774092 -4.190598
  H 2.631563 -0.526742 -3.602207
  H 2.649330 -2.173070 -2.918565
  H 3.285336 -1.450129 -5.814587
  H 1.792479 -2.180154 -5.235975
  H 3.302734 -3.077700 -5.137961
  H 6.866668 -0.486669 -1.291847
 26
 12.621133
  C 1.059515 0.136562 0.228055
  C 2.512543 0.187929 0.419868
  C 3.179221 0.589642 1.670652
  H 2.465256 0.885325 2.428848
  C 3.115747 -0.279576 -0.741570
  C 4.475353 -0.374544 -0.996409
  C 5.137572 -0.845528 -2.127235
  C 4.600613 -1.391282 -3.401972
  C 3.101820 -1.511151 -3.633712
  C 2.835854 -2.095630 -5.018627
  O 6.455225 -0.836758 -2.145226
  H 0.442182 0.150449 1.123851
  H 0.993709 -0.762022 -0.412187
  H 0.750974 0.970579 -0.417048
  H 3.863958 1.413595 1.493867
  H 3.780194 -0.230965 2.050501
  H 2.287667 -0.592841 -1.381028
  H 5.117571 -0.026775 -0.197568
  H 5.060393 -2.377862 -3.528584
  H 5.036930 -0.781363 -4.201125
  H 2.633739 -0.529209 -3.576502
  H 2.659849 -2.172539 -2.889069
  H 3.251691 -1.459221 -5.796273
  H 1.766741 -2.185589 -5.192930
  H 3.277455 -3.084847 -5.115372
  H 6.874526 -0.488932 -1.333548
 26
 21.443758
  C 1.081575 0.133509 0.195665
  C 2.518826 0.197406 0.428675
  C 3.153821 0.587336 1.683162
  H 2.426361 0.877542 2.433257
  C 3.138546 -0.268186 -0.732247
  C 4.487812 -0.362173 -0.989196
  C 5.148410 -0.841730 -2.127623
  C 4.597863 -1.395232 -3.404024
  C 3.093837 -1.512030 -3.621066
  C 2.810945 -2.101228 -5.002730
  O 6.471257 -0.834750 -2.153394
  H 0.439072 0.060809 1.057685
  H 1.109087 -0.716256 -0.539538
  H 0.770771 1.006251 -0.386837
  H 3.841823 1.411172 1.525172
  H 3.746796 -0.238003 2.063482
  H 2.262727 -0.594222 -1.342250
  H 5.133661 -0.012453 -0.191751
  H 5.055128 -2.385230 -3.531376
  H 5.029319 -0.788122 -4.211057
  H 2.629552 -0.528577 -3.562152
  H 2.658202 -2.169641 -2.869661
  H 3.220256 -1.468877 -5.787130
  H 1.739499 -2.188711 -5.165468
  H 3.248515 -3.091978 -5.100921
  H 6.891686 -0.487219 -1.352959
 26
 30.656600
  C 1.077797 0.103533 0.143411
  C 2.520111 0.191243 0.401349
  C 3.139396 0.599832 1.664488
  H 2.398990 0.887546 2.399016
  C 3.151401 -0.277711 -0.751351
  C 4.515259 -0.375314 -1.008345
  C 5.163226 -0.853395 -2.133035
  C 4.601530 -1.395266 -3.387490
  C 3.098099 -1.493435 -3.575976
  C 2.783764 -2.075648 -4.949660
  O 6.488683 -0.855913 -2.168228
  H 0.417954 -0.066934 0.995381
  H 1.190916 -0.686974 -0.676777
  H 0.744782 1.002350 -0.366491
  H 3.826487 1.435628 1.508733
  H 3.739014 -0.221179 2.062677
  H 2.231792 -0.616260 -1.336706
  H 5.167444 -0.028324 -0.206037
  H 5.045403 -2.385844 -3.520166
  H 5.025324 -0.793511 -4.196114
  H 2.646865 -0.503433 -3.505888
  H 2.669142 -2.147368 -2.816343
  H 3.185946 -1.446711 -5.740708
  H 1.709278 -2.150108 -5.092034
  H 3.207999 -3.071494 -5.057181
  H 6.918970 -0.509716 -1.368099
 26
 41.787930
  C 1.083916 0.085241 0.162797
  C 2.517189 0.195314 0.409686
  C 3.137054 0.643350 1.663786
  H 2.398699 0.939507 2.392613
  C 3.152003 -0.289535 -0.735072
  C 4.504196 -0.392226 -0.993673
  C 5.156825 -0.872294 -2.129811
  C 4.598756 -1.405297 -3.394022
  C 3.096550 -1.496533 -3.590990
  C 2.786048 -2.065967 -4.972704
  O 6.477396 -0.880504 -2.161369
  H 0.432897 -0.145313 1.018768
  H 1.253040 -0.674556 -0.718316
  H 0.715767 0.987075 -0.307023
  H 3.811992 1.483094 1.485430
  H 3.746306 -0.159005 2.078473
  H 2.182519 -0.624496 -1.294053
  H 5.159225 -0.054948 -0.186094
  H 5.040657 -2.398487 -3.531377
  H 5.029002 -0.797384 -4.196897
  H 2.649207 -0.505285 -3.514038
  H 2.662514 -2.155939 -2.838998
  H 3.194042 -1.431430 -5.756714
  H 1.711387 -2.135389 -5.120689
  H 3.207417 -3.062730 -5.087475
  H 6.909249 -0.537715 -1.351193
 26
 51.790185
  C 1.076545 0.028661 0.176859
  C 2.515779 0.186151 0.399801
  C 3.137468 0.716062 1.626483
  H 2.389952 1.026795 2.354156
  C 3.157393 -0.322153 -0.729521
  C 4.514046 -0.431766 -0.980663
  C 5.167218 -0.904497 -2.112485
  C 4.603894 -1.413886 -3.387400
  C 3.097721 -1.480421 -3.580935
  C 2.773489 -2.018489 -4.969473
  O 6.488502 -0.926165 -2.138666
  H 0.471897 -0.251034 1.019864
  H 1.289683 -0.714322 -0.760575
  H 0.645097 0.927858 -0.275363
  H 3.779737 1.567929 1.397898
  H 3.780395 -0.046095 2.074977
  H 2.137272 -0.678713 -1.272392
  H 5.160230 -0.118581 -0.168592
  H 5.032144 -2.408438 -3.540157
  H 5.041297 -0.799768 -4.180562
  H 2.665931 -0.486712 -3.483111
  H 2.658703 -2.146382 -2.841080
  H 3.186700 -1.375679 -5.742690
  H 1.698122 -2.070068 -5.113651
  H 3.180036 -3.017528 -5.104759
  H 6.915788 -0.600269 -1.329048
 26
 61.684166
  C 1.071338 -0.002610 0.217949
  C 2.510465 0.181157 0.396697
  C 3.137767 0.782523 1.584583
  H 2.398882 1.105501 2.303647
  C 3.155400 -0.347893 -0.714784
  C 4.512111 -0.467581 -0.964469
  C 5.167286 -0.933535 -2.095376
  C 4.607854 -1.420784 -3.384041
  C 3.097910 -1.470593 -3.587780
  C 2.774529 -1.980399 -4.991504
  O 6.489821 -0.966076 -2.113301
  H 0.500699 -0.310022 1.086960
  H 1.298050 -0.759325 -0.768240
  H 0.591762 0.874541 -0.228707
  H 3.752281 1.643104 1.302725
  H 3.808769 0.059348 2.058378
  H 2.081018 -0.733750 -1.247197
  H 5.158275 -0.175305 -0.140224
  H 5.029014 -2.417084 -3.549315
  H 5.055947 -0.797500 -4.164802
  H 2.673256 -0.472785 -3.471823
  H 2.648730 -2.148706 -2.861268
  H 3.197489 -1.325355 -5.751996
  H 1.697685 -2.020208 -5.141918
  H 3.174114 -2.981911 -5.144683
  H 6.914146 -0.652259 -1.295597
 26
 70.123332
  C 1.069870 -0.041816 0.264848
  C 2.503613 0.174564 0.389003
  C 3.135789 0.865471 1.530454
  H 2.392119 1.208761 2.253463
  C 3.153679 -0.379323 -0.697240
  C 4.507210 -0.511823 -0.950690
  C 5.162198 -0.971947 -2.083878
  C 4.606742 -1.428620 -3.380885
  C 3.103064 -1.453672 -3.591633
  C 2.781385 -1.923338 -5.002395
  O 6.486259 -1.021744 -2.097239
  H 0.540725 -0.352262 1.158612
  H 1.296794 -0.835588 -0.761189
  H 0.547028 0.787928 -0.197297
  H 3.708324 1.725201 1.185761
  H 3.838132 0.197808 2.028188
  H 2.030993 -0.815434 -1.220722
  H 5.154089 -0.244916 -0.114130
  H 5.016504 -2.428404 -3.563252
  H 5.067417 -0.795231 -4.147685
  H 2.692056 -0.456698 -3.453384
  H 2.643777 -2.142241 -2.886082
  H 3.214428 -1.257765 -5.742063
  H 1.708558 -1.946087 -5.157711
  H 3.168387 -2.922099 -5.177125
  H 6.910059 -0.724404 -1.272890
 26
 79.079859
  C 1.057558 -0.051959 0.327739
  C 2.494791 0.174199 0.389657
  C 3.139064 0.929250 1.489626
  H 2.411412 1.283264 2.203184
  C 3.153222 -0.398181 -0.676924
  C 4.505488 -0.541067 -0.938188
  C 5.159275 -0.994878 -2.069328
  C 4.607136 -1.432117 -3.381732
  C 3.108401 -1.441666 -3.603169
  C 2.792519 -1.883640 -5.024538
  O 6.485561 -1.056807 -2.075681
  H 0.567715 -0.349868 1.246593
  H 1.264958 -0.921275 -0.766341
  H 0.499427 0.745094 -0.155709
  H 3.683394 1.787236 1.094394
  H 3.865494 0.299351 2.000864
  H 1.959554 -0.902529 -1.218838
  H 5.150835 -0.294956 -0.096275
  H 5.008191 -2.429040 -3.574824
  H 5.076344 -0.793403 -4.133518
  H 2.704346 -0.444100 -3.449437
  H 2.640119 -2.139790 -2.913772
  H 3.235388 -1.208009 -5.749380
  H 1.720960 -1.895779 -5.187277
  H 3.173640 -2.881833 -5.214605
  H 6.905577 -0.771948 -1.246600
 26
 87.297819
  C 1.054584 -0.061040 0.368047
  C 2.485870 0.168430 0.372213
  C 3.132505 0.993144 1.435270
  H 2.407970 1.361702 2.137088
  C 3.165226 -0.417116 -0.657917
  C 4.513976 -0.570108 -0.925853
  C 5.167200 -1.019521 -2.056345
  C 4.611715 -1.434151 -3.378451
  C 3.114166 -1.419504 -3.595551
  C 2.787149 -1.830701 -5.024275
  O 6.492362 -1.098246 -2.059982
  H 0.598908 -0.333382 1.308682
  H 1.240782 -1.028786 -0.786726
  H 0.466601 0.680348 -0.150000
  H 3.647244 1.842344 0.992908
  H 3.877748 0.404666 1.965117
  H 1.902262 -1.010778 -1.231999
  H 5.156232 -0.344194 -0.075450
  H 4.999515 -2.433889 -3.586756
  H 5.088772 -0.789508 -4.121331
  H 2.724658 -0.420937 -3.421107
  H 2.640134 -2.123559 -2.918769
  H 3.236632 -1.147066 -5.738297
  H 1.713841 -1.825813 -5.183425
  H 3.154951 -2.830575 -5.234375
  H 6.912214 -0.827034 -1.226214
 26
 93.875839
  C 1.048335 -0.063365 0.418070
  C 2.476363 0.163432 0.353258
  C 3.126339 1.066029 1.360861
  H 2.399586 1.459315 2.056650
  C 3.179434 -0.442141 -0.637434
  C 4.520495 -0.607302 -0.911671
  C 5.177075 -1.048928 -2.043920
  C 4.625665 -1.431490 -3.369448
  C 3.116993 -1.393662 -3.585839
  C 2.778986 -1.767313 -5.028815
  O 6.500543 -1.145382 -2.043903
  H 0.631140 -0.293205 1.384550
  H 1.198558 -1.170680 -0.799284
  H 0.425130 0.616432 -0.140699
  H 3.610452 1.900394 0.858376
  H 3.895690 0.521146 1.911328
  H 1.835254 -1.156860 -1.246458
  H 5.159090 -0.406790 -0.048571
  H 5.003642 -2.435342 -3.596253
  H 5.114401 -0.773929 -4.100392
  H 2.737136 -0.392200 -3.383449
  H 2.634385 -2.112169 -2.923124
  H 3.235684 -1.069101 -5.730378
  H 1.700133 -1.746912 -5.184975
  H 3.137064 -2.770306 -5.265327
  H 6.920469 -0.892051 -1.203324
 26
 98.467802
  C 1.048463 -0.054139 0.464507
  C 2.463791 0.158726 0.327492
  C 3.113347 1.138006 1.270232
  H 2.382507 1.559846 1.954987
  C 3.195913 -0.465051 -0.613346
  C 4.526377 -0.646246 -0.898040
  C 5.184812 -1.078262 -2.032496
  C 4.632846 -1.427807 -3.367642
  C 3.125595 -1.366435 -3.574655
  C 2.772330 -1.696314 -5.025100
  O 6.506715 -1.193434 -2.027949
  H 0.670033 -0.231910 1.461505
  H 1.145186 -1.331968 -0.809342
  H 0.386155 0.559479 -0.135595
  H 3.570011 1.949663 0.704359
  H 3.900298 0.639395 1.840216
  H 1.765049 -1.324507 -1.264087
  H 5.161351 -0.472462 -0.025425
  H 4.995589 -2.428971 -3.613113
  H 5.126114 -0.758678 -4.079784
  H 2.756388 -0.364847 -3.338485
  H 2.637574 -2.099922 -2.926449
  H 3.230360 -0.985248 -5.709985
  H 1.694552 -1.660238 -5.171636
  H 3.117399 -2.695650 -5.291287
  H 6.926263 -0.960291 -1.181731
