 25
 0.000000
  C 0.982104 0.157067 0.442268
  C 2.453430 0.138821 0.396427
  C 3.238678 0.603179 1.551555
  H 2.638155 0.938800 2.387134
  C 3.051767 -0.329385 -0.769029
  C 4.433261 -0.415781 -0.984639
  C 5.091434 -0.865234 -2.105153
  C 4.610848 -1.383420 -3.397094
  C 3.126909 -1.510634 -3.714773
  C 2.930344 -2.074350 -5.120425
  H 6.172553 -0.854782 -2.079494
  H 0.593056 0.534975 1.382566
  H 0.590187 -0.848559 0.281620
  H 0.589865 0.771669 -0.369598
  H 3.894272 1.420330 1.242721
  H 3.894635 -0.200161 1.893979
  H 2.388063 -0.645797 -1.556829
  H 5.064617 -0.088099 -0.168408
  H 5.079228 -2.369140 -3.522557
  H 5.079529 -0.757800 -4.168941
  H 2.645387 -0.532676 -3.668578
  H 2.645171 -2.185546 -3.005675
  H 3.377975 -1.424270 -5.868775
  H 1.870369 -2.164184 -5.344790
  H 3.377817 -3.061434 -5.212187
 25
 -0.152006
  C 0.992353 0.341641 0.395233
  C 2.453203 0.176353 0.361232
  C 3.230471 0.314749 1.602375
  H 2.594243 0.527919 2.454934
  C 3.045221 -0.133992 -0.856196
  C 4.426163 -0.259130 -1.057118
  C 5.080682 -0.663335 -2.196097
  C 4.610231 -1.264248 -3.447372
  C 3.131010 -1.513955 -3.704090
  C 2.936497 -2.267406 -5.017447
  H 6.159810 -0.565969 -2.168483
  H 0.626743 0.616226 1.379004
  H 0.503714 -0.582767 0.080736
  H 0.679306 1.092809 -0.331690
  H 3.965790 1.114826 1.504548
  H 3.799274 -0.593846 1.803107
  H 2.389841 -0.240503 -1.704898
  H 5.063699 0.018898 -0.227999
  H 5.150206 -2.218146 -3.543503
  H 5.025858 -0.663410 -4.268328
  H 2.596090 -0.565560 -3.771738
  H 2.705374 -2.107968 -2.893719
  H 3.336876 -1.700979 -5.855322
  H 1.879253 -2.438832 -5.203279
  H 3.433290 -3.234675 -4.990739
 25
 1.003266
  C 1.018551 0.522474 0.327269
  C 2.446432 0.169110 0.299090
  C 3.160856 -0.105425 1.556197
  H 2.509534 -0.020840 2.419887
  C 3.076638 0.048554 -0.931284
  C 4.460836 -0.065797 -1.130874
  C 5.098394 -0.436587 -2.286826
  C 4.612811 -1.174081 -3.458005
  C 3.143133 -1.547386 -3.591255
  C 2.929986 -2.465093 -4.792050
  H 6.163733 -0.241948 -2.329215
  H 0.645212 0.655179 1.337391
  H 0.431315 -0.256687 -0.163262
  H 0.839200 1.428890 -0.252290
  H 3.996336 0.586710 1.674919
  H 3.601804 -1.102376 1.537872
  H 2.478392 0.156900 -1.822228
  H 5.100514 0.237332 -0.310595
  H 5.213810 -2.095571 -3.492013
  H 4.938750 -0.632012 -4.355529
  H 2.537097 -0.652408 -3.734304
  H 2.804680 -2.060540 -2.689157
  H 3.241666 -1.979254 -5.713960
  H 1.879080 -2.725535 -4.888728
  H 3.495677 -3.387953 -4.684697
 25
 4.119362
  C 1.057511 0.630201 0.254268
  C 2.445941 0.154376 0.174574
  C 3.088484 -0.459637 1.346900
  H 2.412141 -0.533740 2.192153
  C 3.116372 0.220974 -1.025749
  C 4.516299 0.152967 -1.216621
  C 5.142296 -0.281926 -2.337383
  C 4.628190 -1.151866 -3.400508
  C 3.149626 -1.505145 -3.447668
  C 2.878135 -2.553797 -4.521832
  H 6.197135 -0.066861 -2.444554
  H 0.696500 0.665857 1.277054
  H 0.405132 -0.034017 -0.316441
  H 0.958600 1.611633 -0.208787
  H 3.958986 0.132129 1.638608
  H 3.474900 -1.449594 1.106350
  H 2.594177 0.561768 -1.908884
  H 5.142800 0.539366 -0.421139
  H 5.214723 -2.079639 -3.330522
  H 4.935690 -0.729133 -4.364712
  H 2.554987 -0.620197 -3.672291
  H 2.829573 -1.896868 -2.479048
  H 3.152650 -2.181544 -5.506340
  H 1.822497 -2.811459 -4.542860
  H 3.442604 -3.463929 -4.332753
 25
 11.250837
  C 1.165629 0.890062 0.269516
  C 2.433912 0.157587 0.101850
  C 2.909178 -0.759148 1.155693
  H 2.227490 -0.802910 1.998517
  C 3.126711 0.244603 -1.079154
  C 4.524270 0.305940 -1.317403
  C 5.165298 -0.182553 -2.400688
  C 4.658510 -1.164343 -3.380920
  C 3.190061 -1.568061 -3.326527
  C 2.886544 -2.671807 -4.337701
  H 6.191686 0.111892 -2.582004
  H 0.791097 0.811705 1.285772
  H 0.405780 0.479087 -0.404959
  H 1.282587 1.939101 -0.000737
  H 3.891390 -0.427263 1.502230
  H 3.057237 -1.767182 0.763964
  H 2.663614 0.794291 -1.912973
  H 5.120481 0.798774 -0.556357
  H 5.289173 -2.059717 -3.276137
  H 4.895765 -0.791706 -4.388015
  H 2.550068 -0.714928 -3.535528
  H 2.950881 -1.936480 -2.326084
  H 3.087615 -2.334602 -5.351488
  H 1.839225 -2.960996 -4.282084
  H 3.490748 -3.557087 -4.145213
 25
 26.026949
  C 1.262332 0.958918 0.146045
  C 2.486653 0.130440 0.071645
  C 2.724602 -0.910737 1.107362
  H 1.917508 -0.943103 1.831410
  C 3.326147 0.247742 -0.972829
  C 4.676856 0.406098 -1.401963
  C 5.216292 -0.151430 -2.519314
  C 4.650724 -1.205200 -3.379794
  C 3.176846 -1.550234 -3.217879
  C 2.769881 -2.684053 -4.159860
  H 6.238192 0.123320 -2.744826
  H 0.770812 0.835675 1.103992
  H 0.562643 0.664649 -0.633656
  H 1.494000 2.010023 -0.003057
  H 3.662084 -0.700123 1.620586
  H 2.826182 -1.898284 0.659017
  H 3.032469 0.930864 -1.818662
  H 5.307376 1.046678 -0.798527
  H 5.254079 -2.109269 -3.198851
  H 4.869088 -0.962633 -4.427612
  H 2.570240 -0.678494 -3.464314
  H 2.965730 -1.837472 -2.182935
  H 2.989022 -2.425592 -5.193845
  H 1.702148 -2.882642 -4.080731
  H 3.302986 -3.602564 -3.920576
 25
 43.423515
  C 1.419103 1.188446 0.060077
  C 2.513139 0.170529 0.002024
  C 2.406170 -1.042813 0.876830
  H 1.476292 -1.034167 1.429076
  C 3.520810 0.292177 -0.837532
  C 4.802910 0.416685 -1.423357
  C 5.242783 -0.135654 -2.612647
  C 4.607080 -1.198407 -3.405158
  C 3.211467 -1.656229 -3.001340
  C 2.727656 -2.789339 -3.903713
  H 6.204453 0.187312 -2.973674
  H 0.771266 1.001228 0.910452
  H 0.810436 1.146934 -0.843052
  H 1.828743 2.191627 0.147121
  H 3.235811 -1.070866 1.580669
  H 2.448464 -1.952075 0.282553
  H 3.527110 1.074762 -1.772908
  H 5.521531 1.020639 -0.874946
  H 5.286855 -2.062110 -3.385479
  H 4.603523 -0.889677 -4.456791
  H 2.506272 -0.829634 -3.075541
  H 3.224098 -2.010177 -1.969268
  H 2.642827 -2.454832 -4.938060
  H 1.748578 -3.141526 -3.582936
  H 3.416216 -3.633412 -3.874331
 25
 52.368941
  C 1.415659 1.178486 -0.037663
  C 2.547850 0.193351 0.001777
  C 2.425472 -0.998273 0.922097
  H 1.468420 -0.973158 1.428939
  C 3.585975 0.300502 -0.768436
  C 4.810316 0.438242 -1.434065
  C 5.256329 -0.202146 -2.624572
  C 4.591417 -1.275915 -3.374967
  C 3.152869 -1.611576 -2.999317
  C 2.623480 -2.764239 -3.845784
  H 6.233411 0.081448 -2.982045
  H 0.718272 0.984704 0.770767
  H 0.873213 1.097362 -0.976747
  H 1.788890 2.193492 0.058821
  H 3.224695 -0.988549 1.658614
  H 2.500449 -1.926505 0.364737
  H 3.964353 1.061491 -1.980093
  H 5.564840 1.008249 -0.901589
  H 5.204129 -2.179580 -3.261764
  H 4.642945 -1.040224 -4.445037
  H 2.506227 -0.747271 -3.152425
  H 3.103449 -1.900182 -1.948923
  H 2.626016 -2.501524 -4.901957
  H 1.602528 -3.008313 -3.563737
  H 3.231173 -3.657364 -3.715733
 25
 54.735401
  C 1.515176 1.323496 0.084051
  C 2.524059 0.183947 0.053351
  C 2.232418 -1.058029 0.888107
  H 1.271256 -0.938104 1.391462
  C 3.570268 0.211607 -0.711590
  C 4.750095 0.447910 -1.429476
  C 5.180363 -0.109613 -2.717096
  C 4.576418 -1.233413 -3.448789
  C 3.184374 -1.692859 -2.996204
  C 2.714487 -2.894568 -3.813868
  H 6.127424 0.262330 -3.091396
  H 0.788840 1.165389 0.879037
  H 0.959605 1.375681 -0.858811
  H 2.020166 2.283211 0.248505
  H 3.028736 -1.207893 1.626681
  H 2.181615 -1.956443 0.261795
  H 4.060870 0.989442 -2.158457
  H 5.507814 1.038607 -0.916258
  H 5.278648 -2.084087 -3.364919
  H 4.561716 -0.988590 -4.522286
  H 2.458009 -0.878970 -3.116871
  H 3.215005 -1.982993 -1.940738
  H 2.635509 -2.631860 -4.870268
  H 1.732051 -3.232388 -3.472516
  H 3.413013 -3.730834 -3.719652
 25
 50.267544
  C 1.477627 1.205386 0.018972
  C 2.552885 0.141969 0.050386
  C 2.324074 -1.061697 0.949633
  H 1.353583 -0.986284 1.443165
  C 3.598562 0.218936 -0.708899
  C 4.756357 0.463237 -1.419751
  C 5.208172 -0.152714 -2.675414
  C 4.565415 -1.255066 -3.398931
  C 3.125292 -1.601425 -3.015738
  C 2.624324 -2.793757 -3.820391
  H 6.185439 0.151052 -3.027658
  H 0.771275 1.050508 0.832068
  H 0.930706 1.157803 -0.917346
  H 1.913367 2.196102 0.111967
  H 3.106182 -1.116576 1.702856
  H 2.347625 -1.982385 0.377360
  H 4.303067 1.021941 -2.343410
  H 5.519531 1.033960 -0.890252
  H 5.199027 -2.145593 -3.238655
  H 4.628057 -1.059066 -4.478245
  H 2.465251 -0.746947 -3.205852
  H 3.074367 -1.850362 -1.951899
  H 2.628737 -2.569042 -4.892306
  H 1.600077 -3.047387 -3.530027
  H 3.255067 -3.673957 -3.650640
 25
 46.968036
  C 1.484500 1.211652 0.052008
  C 2.553859 0.146916 0.048173
  C 2.350253 -1.058516 0.936076
  H 1.399393 -0.987328 1.453740
  C 3.577015 0.229428 -0.739701
  C 4.745738 0.433174 -1.394552
  C 5.201397 -0.134860 -2.662436
  C 4.565803 -1.260842 -3.383762
  C 3.110420 -1.561319 -3.046790
  C 2.606301 -2.766661 -3.833931
  H 6.198191 0.137651 -2.973652
  H 0.794132 1.050840 0.872957
  H 0.923335 1.173658 -0.879869
  H 1.922288 2.202013 0.149534
  H 3.154114 -1.113576 1.667229
  H 2.360391 -1.979853 0.356529
  H 4.412916 0.935357 -2.530706
  H 5.495135 1.013755 -0.860277
  H 5.169130 -2.154613 -3.175438
  H 4.670473 -1.098582 -4.462313
  H 2.481658 -0.701011 -3.281849
  H 3.018322 -1.774808 -1.981133
  H 2.647345 -2.575855 -4.904090
  H 1.575086 -2.989528 -3.571979
  H 3.206139 -3.648966 -3.622525
 25
 37.351166
  C 1.482552 1.180826 0.110412
  C 2.543905 0.119891 0.052453
  C 2.363041 -1.112386 0.893284
  H 1.422322 -1.071219 1.431891
  C 3.557660 0.237823 -0.763605
  C 4.706135 0.451717 -1.384138
  C 5.160802 -0.053145 -2.699133
  C 4.562718 -1.243762 -3.371144
  C 3.099427 -1.520866 -3.063760
  C 2.606611 -2.765222 -3.794506
  H 6.178216 0.186398 -2.972708
  H 0.806447 1.000850 0.939113
  H 0.911304 1.164983 -0.816211
  H 1.918991 2.170857 0.219666
  H 3.181541 -1.179923 1.607507
  H 2.377644 -2.016727 0.287716
  H 4.477103 0.902197 -2.808654
  H 5.436480 1.070918 -0.868512
  H 5.159080 -2.120699 -3.089295
  H 4.701328 -1.145550 -4.452577
  H 2.482317 -0.670541 -3.358039
  H 2.980297 -1.673595 -1.988802
  H 2.669619 -2.632050 -4.872006
  H 1.569525 -2.970754 -3.542201
  H 3.198816 -3.636404 -3.524288
 25
 26.459905
  C 1.465411 1.113088 0.119454
  C 2.531510 0.077560 0.037355
  C 2.400543 -1.166893 0.846456
  H 1.467824 -1.172873 1.400402
  C 3.551252 0.242645 -0.799706
  C 4.685898 0.454317 -1.391026
  C 5.135839 0.021821 -2.753700
  C 4.568586 -1.235261 -3.349410
  C 3.088478 -1.444288 -3.088660
  C 2.578968 -2.745357 -3.696682
  H 6.174793 0.219765 -2.977645
  H 0.788568 0.914318 0.943618
  H 0.898841 1.107570 -0.812191
  H 1.885606 2.110717 0.234742
  H 3.233222 -1.219275 1.548041
  H 2.448503 -2.062570 0.228780
  H 4.509160 0.909293 -3.051847
  H 5.405239 1.094186 -0.885366
  H 5.132402 -2.093780 -2.965838
  H 4.756939 -1.228579 -4.427069
  H 2.512468 -0.609833 -3.491918
  H 2.926050 -1.473386 -2.005608
  H 2.689230 -2.732659 -4.778350
  H 1.525746 -2.888336 -3.469022
  H 3.128893 -3.599750 -3.309089
 25
 17.669766
  C 1.443062 0.986960 0.044545
  C 2.552889 0.011305 0.033355
  C 2.492738 -1.200615 0.879268
  H 1.559201 -1.252660 1.429871
  C 3.596532 0.209921 -0.804960
  C 4.722608 0.404661 -1.381590
  C 5.095106 0.106702 -2.813470
  C 4.552346 -1.208919 -3.335504
  C 3.055626 -1.342354 -3.139865
  C 2.514631 -2.691131 -3.591991
  H 6.146763 0.263987 -3.014908
  H 0.729713 0.773502 0.834191
  H 0.925738 0.958822 -0.916768
  H 1.817227 2.004980 0.155607
  H 3.322475 -1.185373 1.588736
  H 2.617029 -2.109936 0.291373
  H 4.503365 0.926394 -3.243970
  H 5.468789 0.997370 -0.858092
  H 5.070932 -2.040602 -2.848402
  H 4.791869 -1.285630 -4.399163
  H 2.535828 -0.542759 -3.671946
  H 2.843101 -1.217339 -2.066133
  H 2.683471 -2.828187 -4.657615
  H 1.444888 -2.758096 -3.410349
  H 3.003436 -3.506881 -3.064327
 25
 17.243323
  C 1.384232 0.849354 -0.074861
  C 2.569301 -0.017023 0.094159
  C 2.560845 -1.125247 1.072008
  H 1.628289 -1.160001 1.624349
  C 3.613161 0.134232 -0.748991
  C 4.756944 0.287164 -1.313110
  C 5.034743 0.181238 -2.784215
  C 4.545078 -1.145646 -3.366538
  C 3.048245 -1.328401 -3.201990
  C 2.560174 -2.686215 -3.691080
  H 6.070828 0.380727 -3.020159
  H 0.604234 0.606819 0.639589
  H 0.980930 0.765023 -1.085085
  H 1.669517 1.896533 0.040479
  H 3.384227 -1.015113 1.779852
  H 2.729495 -2.078078 0.569281
  H 4.381635 0.959256 -3.186316
  H 5.546454 0.757347 -0.730885
  H 5.072498 -1.971357 -2.880345
  H 4.810702 -1.170863 -4.424168
  H 2.516589 -0.538867 -3.739993
  H 2.800795 -1.230619 -2.134942
  H 2.773758 -2.802249 -4.751204
  H 1.486778 -2.783388 -3.549330
  H 3.051940 -3.495572 -3.156817
