20
 0
 C -1.24657561 0.34400284 2.44894141
 C -2.05986128 0.51533216 1.16688116
 C -2.63565011 1.92592557 1.09186533
 C -1.21168445 0.21365248 -0.06738524
 O 0.00000000 0.00000000 0.00000000
 C -1.91030940 0.17445861 -1.40337349
 H -1.87068278 0.51279203 3.33271101
 H -0.40763968 1.04812285 2.48630236
 H -0.83286432 -0.66801147 2.51719722
 H -2.87794820 -0.21494055 1.18425473
 H -1.84069893 2.67433227 1.00247913
 H -3.22397866 2.15529302 1.98666561
 H -3.29451980 2.04278658 0.22547376
 H -2.99371803 0.24543731 -1.28128382
 H -1.68541947 -0.77389632 -1.89825920
 H -1.56348865 1.01120788 -2.01478387
 O 3.37527688 0.17196748 0.03658468
 H 3.59654193 0.85891429 0.71572933
 H 2.40000000 0.00000000 0.00000000
 H 3.88493013 -0.66430156 0.18813690
