 29
 0.000000
  H 1.440554 0.150743 0.427182
  C 2.518984 0.145443 0.413469
  C 3.277181 0.614545 1.580431
  C 2.446238 1.091112 2.766900
  C 3.342760 1.551770 3.912534
  C 3.105766 -0.321017 -0.747871
  C 4.481294 -0.414304 -0.980726
  C 5.137860 -0.872160 -2.122444
  C 4.609417 -1.389615 -3.412478
  C 3.114088 -1.498406 -3.684653
  C 2.876048 -2.059809 -5.084308
  O 6.453862 -0.878504 -2.138758
  H 3.936087 1.432654 1.264938
  H 3.936560 -0.194039 1.918612
  H 1.804963 0.283452 3.124353
  H 1.804515 1.921241 2.466210
  H 3.978205 0.740891 4.261382
  H 2.738545 1.888572 4.751137
  H 3.977691 2.378899 3.603086
  H 2.432655 -0.634119 -1.527308
  H 5.119318 -0.087967 -0.167736
  H 5.058348 -2.380663 -3.546667
  H 5.058799 -0.766359 -4.194390
  H 2.644318 -0.515866 -3.626942
  H 2.643819 -2.168420 -2.963989
  H 3.310772 -1.414325 -5.843811
  H 1.809588 -2.137765 -5.279459
  H 3.310310 -3.051449 -5.187079
  H 6.861278 -0.548267 -1.314770
 29
 -0.497771
  H 1.534242 -0.252222 0.679905
  C 2.599381 -0.136674 0.533323
  C 3.321818 0.611236 1.570247
  C 2.456867 1.012953 2.761967
  C 3.260170 1.802938 3.789049
  C 3.141896 -0.664156 -0.617345
  C 4.507245 -0.628791 -0.917208
  C 5.155717 -1.012588 -2.091798
  C 4.595595 -1.504290 -3.377160
  C 3.106216 -1.401399 -3.685448
  C 2.856504 -1.753767 -5.149402
  O 6.463926 -0.924187 -2.153447
  H 3.757624 1.515905 1.126526
  H 4.179770 0.027462 1.925360
  H 2.048628 0.118861 3.236593
  H 1.616067 1.619523 2.420861
  H 4.088088 1.211234 4.173971
  H 2.629969 2.083565 4.629469
  H 3.661197 2.714552 3.351396
  H 2.464264 -1.132341 -1.307606
  H 5.155780 -0.248084 -0.136818
  H 4.904581 -2.553323 -3.468495
  H 5.157618 -0.986775 -4.163161
  H 2.752401 -0.386113 -3.502789
  H 2.536093 -2.097585 -3.071611
  H 3.395117 -1.079887 -5.811146
  H 1.797461 -1.676002 -5.380497
  H 3.174426 -2.770858 -5.364542
  H 6.904900 -0.641374 -1.329838
 29
 0.258900
  H 1.685579 -0.809768 0.890016
  C 2.702281 -0.531968 0.652764
  C 3.293270 0.535268 1.468866
  C 2.449920 0.928326 2.679494
  C 3.109030 2.051724 3.473143
  C 3.298900 -1.133511 -0.424812
  C 4.636406 -0.936870 -0.792893
  C 5.233801 -1.178652 -2.027627
  C 4.587756 -1.528019 -3.319513
  C 3.128577 -1.149565 -3.577484
  C 2.792509 -1.359897 -5.050444
  O 6.527681 -1.013665 -2.166626
  H 3.445849 1.422036 0.840684
  H 4.298253 0.247272 1.797338
  H 2.315949 0.060296 3.327832
  H 1.460822 1.253253 2.353230
  H 4.090073 1.749412 3.833112
  H 2.501486 2.314744 4.336227
  H 3.226830 2.943312 2.860826
  H 2.698557 -1.813132 -1.009283
  H 5.289865 -0.536391 -0.027736
  H 4.702370 -2.611891 -3.451581
  H 5.214470 -1.077602 -4.096436
  H 2.965976 -0.101716 -3.321074
  H 2.448512 -1.759774 -2.988517
  H 3.435159 -0.757581 -5.688954
  H 1.761898 -1.074619 -5.245925
  H 2.912959 -2.404346 -5.331354
  H 7.025405 -0.864868 -1.339426
 29
 2.948604
  H 1.783639 -1.144651 0.890119
  C 2.787398 -0.829835 0.642829
  C 3.276561 0.391322 1.297338
  C 2.402277 0.863816 2.454398
  C 2.945213 2.148746 3.071295
  C 3.477720 -1.523201 -0.309727
  C 4.814087 -1.251367 -0.676821
  C 5.355153 -1.237649 -1.955295
  C 4.620586 -1.390718 -3.239681
  C 3.170130 -0.911838 -3.322920
  C 2.657934 -1.047536 -4.752050
  O 6.630411 -0.997936 -2.137873
  H 3.343588 1.197758 0.557234
  H 4.305787 0.237806 1.639120
  H 2.358891 0.085600 3.220897
  H 1.382007 1.038408 2.102563
  H 3.957499 2.004310 3.441228
  H 2.323977 2.459142 3.906449
  H 2.956345 2.954963 2.342957
  H 2.971112 -2.333267 -0.817188
  H 5.484459 -0.979228 0.130965
  H 4.660690 -2.452804 -3.509029
  H 5.210685 -0.867916 -3.997819
  H 3.118335 0.135754 -3.025488
  H 2.522398 -1.484678 -2.668877
  H 3.272084 -0.474862 -5.443848
  H 1.636825 -0.679015 -4.823536
  H 2.664838 -2.087399 -5.069924
  H 7.172030 -0.960571 -1.326152
 29
 8.174474
  H 1.826389 -1.335770 0.827019
  C 2.830916 -1.022292 0.581098
  C 3.268055 0.284758 1.111487
  C 2.354237 0.832053 2.203394
  C 2.847802 2.179066 2.718259
  C 3.582079 -1.780438 -0.246214
  C 4.935096 -1.482177 -0.591468
  C 5.426675 -1.215041 -1.855832
  C 4.651890 -1.185524 -3.125758
  C 3.165774 -0.834132 -3.076935
  C 2.583807 -0.811971 -4.485026
  O 6.689852 -0.914841 -2.035765
  H 3.317597 1.019067 0.299431
  H 4.295776 0.194841 1.482089
  H 2.309335 0.123088 3.031916
  H 1.340876 0.949316 1.815900
  H 3.848498 2.092070 3.134325
  H 2.189208 2.550823 3.500665
  H 2.871352 2.917971 1.920219
  H 3.154726 -2.687081 -0.656830
  H 5.634131 -1.426709 0.234836
  H 4.763790 -2.174443 -3.584086
  H 5.166878 -0.488883 -3.795885
  H 3.041345 0.151045 -2.624145
  H 2.609657 -1.555323 -2.482744
  H 3.103597 -0.090562 -5.112051
  H 1.533259 -0.536653 -4.455325
  H 2.663637 -1.789725 -4.953104
  H 7.254367 -0.977117 -1.241585
 29
 14.263251
  H 1.864222 -1.459387 0.761325
  C 2.863320 -1.142558 0.507430
  C 3.270226 0.216608 0.960522
  C 2.294209 0.827311 1.958629
  C 2.747523 2.212779 2.406886
  C 3.661819 -1.944487 -0.202678
  C 5.030830 -1.661104 -0.579281
  C 5.485530 -1.186929 -1.792737
  C 4.666544 -1.008986 -3.020253
  C 3.179153 -0.728460 -2.862486
  C 2.503805 -0.600541 -4.222667
  O 6.753826 -0.889414 -1.979537
  H 3.344100 0.872504 0.085876
  H 4.272020 0.177699 1.398608
  H 2.210917 0.177075 2.833577
  H 1.303308 0.902630 1.508009
  H 3.719936 2.163843 2.891855
  H 2.037191 2.632757 3.114821
  H 2.819873 2.889709 1.559000
  H 3.317002 -2.944087 -0.459275
  H 5.767806 -1.878534 0.187995
  H 4.790080 -1.925365 -3.613908
  H 5.139580 -0.222509 -3.615818
  H 3.035472 0.195134 -2.300535
  H 2.694723 -1.532803 -2.305347
  H 2.948438 0.204598 -4.803454
  H 1.446353 -0.384158 -4.099348
  H 2.594708 -1.521466 -4.793709
  H 7.339341 -1.045200 -1.214405
 29
 11.542304
  H 1.901375 -1.548039 0.725886
  C 2.901822 -1.229744 0.475985
  C 3.277241 0.146368 0.884302
  C 2.262070 0.805330 1.810213
  C 2.681778 2.225711 2.178486
  C 3.738258 -2.070676 -0.153593
  C 5.090392 -1.784452 -0.565295
  C 5.510310 -1.180228 -1.726131
  C 4.661926 -0.913634 -2.921495
  C 3.181057 -0.646338 -2.717523
  C 2.477166 -0.439800 -4.054290
  O 6.778813 -0.885773 -1.936455
  H 3.381227 0.750818 -0.028743
  H 4.261593 0.154252 1.357931
  H 2.164025 0.214570 2.724606
  H 1.284432 0.832440 1.328237
  H 3.647925 2.227028 2.679628
  H 1.953941 2.674501 2.849504
  H 2.753535 2.851648 1.291227
  H 3.445480 -3.112073 -0.259231
  H 5.852447 -2.162247 0.109122
  H 4.774845 -1.785100 -3.579947
  H 5.125263 -0.087303 -3.469151
  H 3.044487 0.240227 -2.098645
  H 2.709329 -1.486744 -2.198866
  H 2.911110 0.398131 -4.596418
  H 1.421913 -0.231502 -3.896088
  H 2.555580 -1.324859 -4.679602
  H 7.379213 -1.098164 -1.198523
 29
 9.461345
  H 1.924086 -1.595811 0.703823
  C 2.933098 -1.301051 0.456828
  C 3.318969 0.075871 0.832537
  C 2.254481 0.812779 1.637472
  C 2.704904 2.225509 1.994488
  C 3.779970 -2.185358 -0.097983
  C 5.103977 -1.887186 -0.545467
  C 5.469046 -1.110336 -1.627264
  C 4.605085 -0.775248 -2.798256
  C 3.101677 -0.627139 -2.637163
  C 2.446687 -0.356121 -3.987511
  O 6.727956 -0.768133 -1.843126
  H 3.530873 0.639352 -0.085583
  H 4.260335 0.071590 1.388663
  H 2.046589 0.262726 2.557497
  H 1.325636 0.864531 1.065517
  H 3.619641 2.204054 2.582665
  H 1.941599 2.730701 2.580328
  H 2.886362 2.814326 1.097472
  H 3.502146 -3.234583 -0.107358
  H 5.900828 -2.379696 0.003543
  H 4.791553 -1.577292 -3.525390
  H 5.024600 0.122423 -3.262684
  H 2.868195 0.194496 -1.961635
  H 2.671067 -1.538275 -2.215174
  H 2.844133 0.550827 -4.436405
  H 1.374174 -0.232525 -3.867352
  H 2.615182 -1.178452 -4.678266
  H 7.347814 -0.999488 -1.126142
 29
 9.387689
  H 1.920098 -1.581230 0.639341
  C 2.946562 -1.330768 0.411784
  C 3.368472 0.035474 0.790610
  C 2.269148 0.855192 1.458689
  C 2.776258 2.232547 1.872588
  C 3.795281 -2.264701 -0.085921
  C 5.102082 -1.959070 -0.549862
  C 5.411345 -1.033111 -1.530642
  C 4.536537 -0.650717 -2.680104
  C 3.018889 -0.668560 -2.585044
  C 2.409419 -0.314076 -3.939383
  O 6.649625 -0.631383 -1.735498
  H 3.723570 0.568614 -0.099815
  H 4.238624 -0.012790 1.452827
  H 1.905898 0.329283 2.343736
  H 1.426653 0.974077 0.774662
  H 3.614563 2.146517 2.560476
  H 1.990151 2.792086 2.373130
  H 3.100076 2.804921 1.006496
  H 3.500587 -3.307156 -0.060007
  H 5.925514 -2.514746 -0.115794
  H 4.826447 -1.354243 -3.473052
  H 4.880987 0.323387 -3.040604
  H 2.660606 0.045500 -1.846824
  H 2.668070 -1.660925 -2.294090
  H 2.727580 0.674810 -4.260643
  H 1.324681 -0.316952 -3.876201
  H 2.703655 -1.030175 -4.702946
  H 7.282583 -0.872026 -1.033855
