 20
 0.000000
  C -0.593640 2.425800 -0.348009
  C -0.148259 1.127079 -1.016915
  C 1.155963 1.337986 -1.794641
  C 0.001729 0.014607 0.004553
  O -0.090701 0.214649 1.200882
  C 0.267355 -1.364279 -0.542802
  H -0.753869 3.202484 -1.091440
  H 0.150653 2.774140 0.363806
  H -1.524385 2.277227 0.196001
  H -0.930122 0.806966 -1.714390
  H 1.958802 1.609056 -1.116406
  H 1.024372 2.147171 -2.507260
  H 1.429562 0.446855 -2.352306
  H 0.192505 -1.392500 -1.624928
  H -0.469900 -2.044080 -0.122192
  H 1.246018 -1.720087 -0.231754
  O 3.606001 0.150965 -0.031498
  H 3.864940 1.077930 0.153099
  H 3.986131 -0.172315 -0.876777
  H 2.634128 0.017054 0.007573
 20
 1.769788
  C -0.602031 2.432367 -0.355325
  C -0.115719 1.147037 -1.021619
  C 1.163107 1.389036 -1.806716
  C 0.104392 0.046186 0.006043
  O 0.021273 0.250923 1.204261
  C 0.402397 -1.339396 -0.539138
  H -0.803722 3.195227 -1.102978
  H 0.138877 2.814883 0.342721
  H -1.517909 2.250608 0.203921
  H -0.896909 0.788887 -1.701743
  H 1.934677 1.685094 -1.116400
  H 1.018325 2.184083 -2.532708
  H 1.453027 0.494767 -2.350218
  H 0.327524 -1.376341 -1.620615
  H -0.327609 -2.023662 -0.110614
  H 1.377600 -1.694212 -0.216350
  O 3.405661 0.043852 -0.032195
  H 3.810711 0.919368 0.139443
  H 3.695048 -0.330677 -0.891795
  H 2.414133 0.052547 0.058774
 20
 2.671186
  C -0.556508 2.411501 -0.339265
  C -0.072247 1.134530 -1.025153
  C 1.141839 1.436501 -1.913778
  C 0.262872 0.060490 -0.004766
  O 0.307474 0.298449 1.190325
  C 0.456440 -1.349588 -0.560472
  H -0.844097 3.153931 -1.078369
  H 0.219311 2.833013 0.293520
  H -1.418120 2.204537 0.290336
  H -0.887062 0.729864 -1.636182
  H 1.924513 1.826257 -1.278846
  H 0.880257 2.201546 -2.640753
  H 1.466642 0.558306 -2.464593
  H 0.304182 -1.392995 -1.633150
  H -0.289109 -1.982181 -0.077383
  H 1.414702 -1.789002 -0.287003
  O 3.181742 -0.014457 0.071553
  H 3.647044 0.746930 0.473153
  H 3.617185 -0.300593 -0.757457
  H 2.219215 0.151883 -0.060565
 20
 6.582444
  C -0.527483 2.384788 -0.327252
  C -0.029269 1.132604 -1.029362
  C 1.134267 1.464335 -1.959066
  C 0.380540 0.065944 -0.017993
  O 0.479522 0.309417 1.174134
  C 0.485359 -1.352766 -0.560402
  H -0.865418 3.118137 -1.057280
  H 0.256633 2.832990 0.277849
  H -1.358653 2.149226 0.330754
  H -0.845139 0.707286 -1.609347
  H 1.933180 1.917403 -1.378270
  H 0.816817 2.190916 -2.692212
  H 1.477349 0.590652 -2.491721
  H 0.317062 -1.392209 -1.631853
  H -0.296119 -1.932035 -0.061945
  H 1.419216 -1.845827 -0.292134
  O 3.030735 -0.031813 0.103935
  H 3.496831 0.672198 0.586408
  H 3.519208 -0.276150 -0.704478
  H 2.064627 0.200886 -0.093241
 20
 13.142705
  C -0.488408 2.370141 -0.306631
  C 0.022493 1.119511 -1.019975
  C 1.150677 1.470562 -1.977341
  C 0.440689 0.059943 -0.011557
  O 0.500810 0.303371 1.187152
  C 0.492275 -1.370343 -0.548097
  H -0.847295 3.096581 -1.030851
  H 0.295496 2.832719 0.286267
  H -1.308057 2.121790 0.364084
  H -0.797945 0.675757 -1.595565
  H 1.951456 1.962771 -1.438323
  H 0.787336 2.170222 -2.719996
  H 1.510883 0.595340 -2.502448
  H 0.373633 -1.403441 -1.623377
  H -0.340270 -1.898845 -0.086050
  H 1.385668 -1.901999 -0.236312
  O 2.931864 -0.011264 0.072680
  H 3.361913 0.687958 0.603035
  H 3.418041 -0.152090 -0.764757
  H 1.913342 0.164744 -0.074696
 20
 20.473668
  C -0.448397 2.362816 -0.294541
  C 0.057933 1.116052 -1.006903
  C 1.168333 1.472839 -1.991875
  C 0.468461 0.042858 0.008629
  O 0.461019 0.269638 1.216404
  C 0.495775 -1.396743 -0.534319
  H -0.815264 3.081758 -1.015303
  H 0.338112 2.830224 0.286684
  H -1.259650 2.113833 0.385129
  H -0.769849 0.666696 -1.571495
  H 1.971649 1.989373 -1.478103
  H 0.775874 2.156718 -2.738060
  H 1.532724 0.595380 -2.515227
  H 0.445332 -1.420819 -1.612941
  H -0.383132 -1.891364 -0.127934
  H 1.348476 -1.956265 -0.169892
  O 2.864488 0.027479 0.035891
  H 3.260598 0.734921 0.582041
  H 3.303451 -0.019475 -0.836602
  H 1.781058 0.108851 -0.033906
 20
 29.938176
  C -0.434426 2.376516 -0.286308
  C 0.062119 1.126860 -1.004104
  C 1.153821 1.479445 -1.995675
  C 0.477444 0.047470 0.012461
  O 0.445452 0.266022 1.225273
  C 0.493777 -1.432541 -0.546555
  H -0.807772 3.095483 -1.005238
  H 0.359516 2.844510 0.285445
  H -1.238588 2.130017 0.402678
  H -0.772323 0.676252 -1.559159
  H 1.964406 1.992579 -1.495447
  H 0.757036 2.160719 -2.741811
  H 1.508596 0.597406 -2.518442
  H 0.468520 -1.451762 -1.623728
  H -0.401587 -1.910557 -0.159555
  H 1.333040 -1.999555 -0.162717
  O 2.857370 0.033533 0.035997
  H 3.235121 0.738340 0.596543
  H 3.286070 0.026472 -0.842132
  H 1.683578 0.087657 -0.025751
 20
 38.962931
  C -0.407112 2.270121 0.000872
  C 0.019401 1.090236 -0.857952
  C 0.931682 1.545002 -2.004630
  C 0.605103 -0.028873 0.011624
  O 0.680248 0.094456 1.242086
  C 0.587489 -1.457994 -0.643232
  H -0.888828 3.022172 -0.612969
  H 0.446831 2.727847 0.492414
  H -1.103283 1.952456 0.775104
  H -0.876374 0.628729 -1.304158
  H 1.795566 2.075297 -1.604269
  H 0.390573 2.237170 -2.638884
  H 1.237564 0.707884 -2.628329
  H 0.442220 -1.396626 -1.711388
  H -0.244728 -1.979931 -0.185545
  H 1.482947 -2.033138 -0.408474
  O 2.956744 0.200911 -0.254285
  H 3.208522 0.969713 0.274727
  H 3.279247 0.307582 -1.167640
  H 1.711361 -0.048801 -0.181405
 20
 46.005395
  C -0.460566 2.307848 -0.040682
  C -0.009531 1.118928 -0.869098
  C 0.920497 1.553387 -1.999415
  C 0.554467 0.013277 0.024567
  O 0.560961 0.137137 1.262966
  C 0.597073 -1.452086 -0.630982
  H -0.936076 3.047546 -0.678676
  H 0.379168 2.779939 0.459477
  H -1.166286 1.996918 0.724296
  H -0.893289 0.652766 -1.330171
  H 1.779651 2.080198 -1.600456
  H 0.393343 2.240180 -2.651556
  H 1.233153 0.708787 -2.603120
  H 0.500824 -1.394287 -1.702508
  H -0.253926 -1.971963 -0.200823
  H 1.484401 -2.013816 -0.351842
  O 2.995726 0.107477 -0.229998
  H 3.342041 0.840937 0.301194
  H 3.301382 0.191381 -1.149402
  H 1.623505 -0.012676 -0.126052
 20
 52.201179
  C -0.491282 2.331961 -0.078854
  C -0.034022 1.127770 -0.886658
  C 0.903649 1.544620 -2.018889
  C 0.518486 0.034944 0.020586
  O 0.486873 0.162860 1.257971
  C 0.584300 -1.423624 -0.617940
  H -0.961648 3.060452 -0.728455
  H 0.351504 2.812766 0.419907
  H -1.207502 2.032237 0.693083
  H -0.906867 0.654482 -1.339969
  H 1.759220 2.086036 -1.621477
  H 0.381173 2.219723 -2.685801
  H 1.228247 0.688913 -2.609883
  H 0.523544 -1.367005 -1.695608
  H -0.280409 -1.924430 -0.205673
  H 1.462296 -1.991853 -0.304005
  O 3.035770 0.040060 -0.171735
  H 3.402846 0.725394 0.390920
  H 3.370066 0.159127 -1.084847
  H 1.548934 -0.005440 -0.121012
 20
 57.565890
  C -0.517362 2.366653 -0.110163
  C -0.062978 1.145738 -0.903931
  C 0.892429 1.532056 -2.042668
  C 0.474048 0.053128 0.021968
  O 0.407848 0.174933 1.261764
  C 0.555173 -1.433098 -0.609785
  H -0.974195 3.092235 -0.768118
  H 0.319322 2.840370 0.385825
  H -1.236029 2.084665 0.654254
  H -0.943747 0.676451 -1.359309
  H 1.749878 2.068810 -1.646657
  H 0.380621 2.202107 -2.728066
  H 1.218897 0.670271 -2.609558
  H 0.524164 -1.379531 -1.688004
  H -0.331910 -1.919933 -0.208820
  H 1.413458 -2.001066 -0.271319
  O 3.115777 0.014686 -0.121138
  H 3.478101 0.678420 0.484973
  H 3.479968 0.170593 -0.996099
  H 1.482136 -0.032493 -0.131259
 20
 62.400746
  C -0.552692 2.399348 -0.146231
  C -0.106040 1.167442 -0.919823
  C 0.867039 1.511188 -2.055486
  C 0.412767 0.088629 0.016230
  O 0.324137 0.215096 1.248838
  C 0.530541 -1.434397 -0.612809
  H -0.999964 3.126213 -0.818959
  H 0.294608 2.871529 0.353373
  H -1.277614 2.132599 0.615019
  H -0.995888 0.711472 -1.380971
  H 1.732419 2.028986 -1.663454
  H 0.373043 2.184090 -2.754623
  H 1.185460 0.634877 -2.604100
  H 0.509662 -1.384274 -1.696924
  H -0.364117 -1.903642 -0.206242
  H 1.387681 -2.001746 -0.259506
  O 3.228930 -0.014496 -0.040222
  H 3.578787 0.632715 0.583558
  H 3.660808 0.136672 -0.891664
  H 1.404064 -0.068320 -0.154251
 20
 63.721991
  C -0.608129 2.440647 -0.180311
  C -0.178231 1.193150 -0.945826
  C 0.820453 1.481369 -2.081528
  C 0.327212 0.136278 -0.003338
  O 0.228850 0.265150 1.217488
  C 0.528121 -1.405417 -0.621819
  H -1.048395 3.165123 -0.859840
  H 0.239910 2.901903 0.315822
  H -1.343744 2.189257 0.576908
  H -1.076340 0.753009 -1.403612
  H 1.708812 1.969642 -1.696421
  H 0.351139 2.168264 -2.781953
  H 1.113861 0.593915 -2.623110
  H 0.491473 -1.365000 -1.707027
  H -0.360688 -1.862924 -0.184675
  H 1.395527 -1.968956 -0.263658
  O 3.410834 -0.081536 0.071209
  H 3.759547 0.557750 0.704236
  H 3.932081 0.033640 -0.730889
  H 1.300749 -0.139702 -0.202463
