 19
 0.000000
  C -0.352690 -1.571470 -2.040927
  C -0.238725 -1.446164 -0.552242
  C 0.861061 -2.292704 0.045667
  C 0.013187 -0.002100 0.044998
  C 0.270930 1.062147 -0.956681
  O 0.007014 0.149128 1.219705
  H -0.608878 -2.606889 -2.276212
  H 0.588068 -1.369817 -2.548468
  H -1.148593 -0.954496 -2.447986
  H -1.206388 -1.686683 -0.092184
  H 1.845974 -1.999103 -0.319963
  H 0.708148 -3.330407 -0.255732
  H 0.867280 -2.221024 1.130454
  H 0.181961 0.747579 -1.985642
  H 1.290466 1.397898 -0.751283
  H -0.413021 1.883520 -0.740010
  O 3.134379 0.053520 0.003023
  H 3.823618 0.719122 0.083042
  H 3.590148 -0.781665 -0.117177
 19
 -0.147425
  C -0.355115 -1.570516 -2.040754
  C -0.204348 -1.444780 -0.554161
  C 0.865270 -2.332516 0.028003
  C 0.116937 0.008993 0.031282
  C 0.277703 1.069546 -0.986213
  O 0.182462 0.145988 1.205043
  H -0.658567 -2.597530 -2.259614
  H 0.584123 -1.415014 -2.567025
  H -1.137746 -0.930671 -2.439060
  H -1.174073 -1.604703 -0.060162
  H 1.850205 -2.110998 -0.383236
  H 0.645541 -3.364483 -0.247893
  H 0.912301 -2.243156 1.109261
  H 0.157094 0.746953 -2.008502
  H 1.285446 1.459484 -0.835592
  H -0.429603 1.861663 -0.739303
  O 3.049586 0.052195 0.013765
  H 3.650222 0.768235 0.229504
  H 3.591130 -0.737748 -0.050368
 19
 0.011910
  C -0.300964 -1.550662 -2.037047
  C -0.164918 -1.423109 -0.552308
  C 0.851221 -2.362378 0.046511
  C 0.185967 0.026261 0.028216
  C 0.259403 1.101527 -0.986670
  O 0.287626 0.159402 1.200240
  H -0.601154 -2.576965 -2.259666
  H 0.645810 -1.398667 -2.551326
  H -1.074665 -0.907982 -2.445442
  H -1.147167 -1.538988 -0.069411
  H 1.835741 -2.247538 -0.409996
  H 0.535171 -3.386430 -0.165928
  H 0.939559 -2.228058 1.122096
  H 0.205520 0.765388 -2.012119
  H 1.204678 1.618409 -0.811223
  H -0.550461 1.797208 -0.764226
  O 2.986619 -0.005447 -0.067050
  H 3.531671 0.714600 0.262509
  H 3.555321 -0.780888 -0.081301
 19
 0.132654
  C -0.252551 -1.526356 -2.026506
  C -0.143928 -1.404990 -0.539918
  C 0.827496 -2.379563 0.075212
  C 0.225270 0.036419 0.043951
  C 0.246776 1.120425 -0.963403
  O 0.347977 0.163063 1.214992
  H -0.542032 -2.556354 -2.262558
  H 0.705773 -1.368684 -2.520580
  H -1.019019 -0.881382 -2.447592
  H -1.139906 -1.489735 -0.076167
  H 1.807187 -2.341529 -0.407903
  H 0.443110 -3.392076 -0.090403
  H 0.945507 -2.214630 1.139668
  H 0.303304 0.782586 -1.987282
  H 1.102810 1.754032 -0.725880
  H -0.661921 1.705148 -0.804341
  O 2.947263 -0.041736 -0.192413
  H 3.479535 0.659029 0.192663
  H 3.496119 -0.831007 -0.170621
 19
 0.557371
  C -0.186205 -1.503710 -2.015409
  C -0.095213 -1.387399 -0.523068
  C 0.824950 -2.403260 0.101001
  C 0.315923 0.051272 0.060888
  C 0.262430 1.144252 -0.937747
  O 0.443300 0.170642 1.232538
  H -0.474739 -2.532098 -2.258162
  H 0.780601 -1.347410 -2.495010
  H -0.939824 -0.856122 -2.444668
  H -1.098829 -1.429399 -0.069130
  H 1.779659 -2.457833 -0.423743
  H 0.358200 -3.385241 -0.000354
  H 0.992530 -2.208415 1.151436
  H 0.394032 0.819820 -1.959642
  H 1.033606 1.867412 -0.669791
  H -0.715416 1.622774 -0.810657
  O 2.772154 -0.081411 -0.327859
  H 3.282482 0.606006 0.111044
  H 3.300425 -0.882071 -0.258915
 19
 1.089698
  C -0.135767 -1.489615 -2.001639
  C -0.044239 -1.377625 -0.512983
  C 0.832016 -2.433118 0.112229
  C 0.419153 0.064248 0.061493
  C 0.276603 1.167283 -0.927500
  O 0.519051 0.182081 1.240008
  H -0.441431 -2.510025 -2.240825
  H 0.833111 -1.349182 -2.479292
  H -0.877871 -0.827717 -2.433044
  H -1.046299 -1.378787 -0.055301
  H 1.761175 -2.559781 -0.438379
  H 0.300102 -3.382991 0.052063
  H 1.035030 -2.228686 1.160233
  H 0.412675 0.856364 -1.953281
  H 1.003471 1.935706 -0.671792
  H -0.726998 1.579408 -0.780119
  O 2.603129 -0.096988 -0.410973
  H 3.090056 0.581757 0.066593
  H 3.096829 -0.916779 -0.295081
 19
 0.993031
  C -0.089874 -1.480445 -1.993135
  C -0.001780 -1.368998 -0.502922
  C 0.826640 -2.461881 0.127324
  C 0.539294 0.071156 0.052548
  C 0.271979 1.187103 -0.912794
  O 0.597887 0.189080 1.244146
  H -0.418327 -2.493905 -2.226663
  H 0.879863 -1.359373 -2.467769
  H -0.817920 -0.803039 -2.429552
  H -0.997377 -1.326706 -0.044700
  H 1.731761 -2.661669 -0.440568
  H 0.233154 -3.376749 0.106332
  H 1.060851 -2.249146 1.167416
  H 0.398406 0.897343 -1.947079
  H 0.949598 1.999913 -0.670153
  H -0.747899 1.523040 -0.728940
  O 2.460529 -0.102490 -0.471880
  H 2.958269 0.573758 0.006715
  H 2.893697 -0.951897 -0.305130
 19
 0.646444
  C -0.040763 -1.476933 -1.991123
  C 0.029736 -1.350875 -0.498008
  C 0.801202 -2.482155 0.152100
  C 0.674484 0.065083 0.025540
  C 0.246706 1.200439 -0.885209
  O 0.696249 0.187112 1.238666
  H -0.389742 -2.487381 -2.214462
  H 0.935062 -1.374169 -2.459017
  H -0.751110 -0.791916 -2.442303
  H -0.964977 -1.265325 -0.052922
  H 1.689311 -2.756390 -0.413837
  H 0.149945 -3.357289 0.159800
  H 1.051319 -2.260492 1.186307
  H 0.363749 0.951574 -1.930818
  H 0.859386 2.063117 -0.634013
  H -0.789873 1.438166 -0.658355
  O 2.341877 -0.106382 -0.531360
  H 2.876499 0.575671 -0.083092
  H 2.718805 -0.978940 -0.308826
 19
 1.522466
  C -0.073751 -1.472101 -1.969708
  C 0.041093 -1.322648 -0.475740
  C 0.788511 -2.488329 0.158639
  C 0.744622 0.043444 0.012177
  C 0.243213 1.188289 -0.900372
  O 0.718525 0.259861 1.228897
  H -0.455799 -2.472099 -2.172855
  H 0.890391 -1.390181 -2.467466
  H -0.777611 -0.774138 -2.408527
  H -0.943683 -1.238585 -0.011309
  H 1.669655 -2.785790 -0.402029
  H 0.112576 -3.342231 0.152392
  H 1.042061 -2.287280 1.196762
  H 0.525711 0.994168 -1.927180
  H 0.698350 2.104053 -0.534171
  H -0.834106 1.263373 -0.791938
  O 2.308838 -0.071500 -0.511431
  H 2.866032 0.546863 0.007916
  H 2.680139 -0.974909 -0.421639
 19
 6.607945
  C -0.111581 -1.464871 -1.953746
  C 0.033614 -1.305827 -0.455453
  C 0.771653 -2.511809 0.137116
  C 0.745881 -0.009281 0.040396
  C 0.250488 1.170880 -0.925813
  O 0.631271 0.388272 1.211501
  H -0.425539 -2.485729 -2.159289
  H 0.829485 -1.302153 -2.472349
  H -0.876061 -0.814290 -2.365177
  H -0.949521 -1.249519 0.020444
  H 1.662784 -2.783271 -0.417070
  H 0.097876 -3.362496 0.075199
  H 1.009575 -2.358546 1.187256
  H 0.465530 0.866405 -1.940092
  H 0.802927 2.052479 -0.626426
  H -0.805457 1.304686 -0.732165
  O 2.299488 -0.038993 -0.452904
  H 2.827910 0.600568 0.074539
  H 2.713739 -0.923161 -0.381319
 19
 16.488410
  C -0.099559 -1.477564 -1.940541
  C 0.019645 -1.313513 -0.431376
  C 0.756988 -2.541090 0.136359
  C 0.739605 -0.071652 0.092210
  C 0.215206 1.210896 -0.934637
  O 0.567781 0.482963 1.186226
  H -0.502104 -2.464418 -2.146826
  H 0.863292 -1.400821 -2.431244
  H -0.793949 -0.766312 -2.376183
  H -0.982301 -1.268996 0.020040
  H 1.632201 -2.792785 -0.447355
  H 0.080417 -3.387545 0.082105
  H 1.027247 -2.402637 1.180290
  H 0.411556 0.855005 -1.934968
  H 0.823731 2.043998 -0.623038
  H -0.822277 1.333114 -0.670023
  O 2.258375 -0.011184 -0.465364
  H 2.785938 0.628210 0.079342
  H 2.705929 -0.883857 -0.418372
 19
 26.456887
  C -0.087429 -1.473486 -1.904438
  C 0.037282 -1.356745 -0.387429
  C 0.756538 -2.610113 0.163093
  C 0.771762 -0.161398 0.156374
  C 0.137850 1.390077 -1.040342
  O 0.575847 0.447888 1.186242
  H -0.565779 -2.421164 -2.134861
  H 0.881070 -1.456899 -2.393356
  H -0.712635 -0.690594 -2.316924
  H -0.960366 -1.310065 0.060004
  H 1.641956 -2.860827 -0.417169
  H 0.074704 -3.453192 0.085910
  H 1.014366 -2.498309 1.214067
  H 0.411741 1.032175 -2.014275
  H 0.734613 2.171246 -0.607000
  H -0.897308 1.377853 -0.761188
  O 2.184958 -0.067889 -0.428620
  H 2.717618 0.658059 -0.020888
  H 2.670865 -0.923635 -0.416294
 19
 32.192582
  C -0.062412 -1.470098 -1.862528
  C 0.046819 -1.412203 -0.339861
  C 0.745495 -2.688825 0.179260
  C 0.801553 -0.249048 0.215708
  C 0.020435 1.617013 -1.167856
  O 0.593318 0.424465 1.181991
  H -0.493186 -2.427076 -2.141196
  H 0.905551 -1.380829 -2.343303
  H -0.720487 -0.695156 -2.237193
  H -0.954009 -1.354401 0.098062
  H 1.613153 -2.935777 -0.426889
  H 0.050245 -3.517436 0.099247
  H 1.026684 -2.598961 1.225770
  H 0.255499 1.248012 -2.146301
  H 0.658294 2.354640 -0.728026
  H -0.988499 1.559390 -0.811023
  O 2.183819 -0.150590 -0.391031
  H 2.726026 0.558555 0.035553
  H 2.668867 -1.010674 -0.392644
 19
 32.837075
  C -0.070509 -1.466252 -1.844036
  C 0.054498 -1.425385 -0.321600
  C 0.755319 -2.707480 0.180234
  C 0.812680 -0.267054 0.231664
  C 0.014196 1.657778 -1.207305
  O 0.596356 0.419498 1.180767
  H -0.503240 -2.420308 -2.130143
  H 0.892137 -1.369914 -2.334871
  H -0.732200 -0.686384 -2.200960
  H -0.941661 -1.369621 0.125081
  H 1.616427 -2.951411 -0.435759
  H 0.057885 -3.535141 0.099414
  H 1.045109 -2.627185 1.224924
  H 0.298057 1.301166 -2.176325
  H 0.622388 2.393426 -0.725169
  H -1.002265 1.562081 -0.883346
  O 2.176208 -0.158102 -0.376878
  H 2.725786 0.540051 0.059465
  H 2.659993 -1.018760 -0.417418
 19
 34.496260
  C 0.005010 -1.475388 -1.788503
  C 0.112194 -1.511183 -0.261507
  C 0.757434 -2.832262 0.203444
  C 0.902964 -0.382390 0.292866
  C -0.178983 1.977062 -1.367917
  O 0.660042 0.391319 1.151729
  H -0.477703 -2.387328 -2.126023
  H 0.975980 -1.406862 -2.267215
  H -0.603863 -0.636343 -2.107631
  H -0.885723 -1.427157 0.176620
  H 1.610223 -3.091702 -0.417173
  H 0.028854 -3.629397 0.097720
  H 1.046905 -2.791581 1.250355
  H 0.050160 1.619065 -2.348777
  H 0.460813 2.696969 -0.907171
  H -1.153428 1.821975 -0.956278
  O 2.241074 -0.300186 -0.310186
  H 2.806670 0.401062 0.106155
  H 2.718539 -1.164671 -0.372771
