 22
 0.000000
  C 0.998446 0.128302 0.372021
  C 2.466513 0.141366 0.403676
  C 3.226053 0.612415 1.574592
  C 2.444240 1.099724 2.787320
  C 3.390329 1.546186 3.898247
  C 3.131908 -0.317501 -0.738021
  C 4.528473 -0.390652 -0.922131
  C 5.062166 -0.855381 -2.080236
  H 4.435965 -1.181948 -2.892629
  H 6.127153 -0.914158 -2.227814
  H 0.541475 0.494495 1.282487
  H 0.641688 -0.885287 0.169648
  H 0.641476 0.719653 -0.475557
  H 3.901582 1.414191 1.246086
  H 3.901921 -0.193328 1.892313
  H 1.805874 0.301417 3.171623
  H 1.805765 1.941945 2.512430
  H 4.026503 0.726786 4.224380
  H 2.825004 1.892188 4.759583
  H 4.026430 2.363562 3.566648
  H 2.521137 -0.651494 -1.568248
  H 5.190398 -0.072128 -0.129667
 22
 7.990372
  C 0.880368 0.126381 0.367305
  C 2.507675 0.141741 0.404629
  C 3.255749 0.611756 1.572952
  C 2.466155 1.096652 2.779664
  C 3.403111 1.545715 3.897034
  C 3.162805 -0.314454 -0.730396
  C 4.558873 -0.389113 -0.918313
  C 5.088625 -0.854245 -2.077447
  H 4.459528 -1.180527 -2.889105
  H 6.152750 -0.913995 -2.227530
  H 0.428225 0.492385 1.277338
  H 0.530508 -0.885765 0.166568
  H 0.530307 0.717859 -0.478120
  H 3.931213 1.414653 1.247834
  H 3.931577 -0.192454 1.893911
  H 1.827241 0.296829 3.159000
  H 1.827128 1.936517 2.500133
  H 4.039338 0.728099 4.227754
  H 2.830728 1.890105 4.754351
  H 4.039222 2.364944 3.569983
  H 2.548852 -0.647499 -1.558258
  H 5.223171 -0.071361 -0.127801
 22
 24.180047
  C 0.789394 0.128362 0.372118
  C 2.576006 0.145010 0.412649
  C 3.292403 0.614062 1.578549
  C 2.479093 1.092204 2.768682
  C 3.386682 1.549694 3.906963
  C 3.195574 -0.310509 -0.720558
  C 4.592267 -0.395238 -0.933566
  C 5.097450 -0.863794 -2.101098
  H 4.451702 -1.186049 -2.902581
  H 6.158261 -0.930776 -2.269285
  H 0.362070 0.496226 1.286865
  H 0.463217 -0.883425 0.179289
  H 0.463002 0.725068 -0.467390
  H 3.968711 1.421533 1.263358
  H 3.969168 -0.186541 1.909798
  H 1.837978 0.287260 3.132175
  H 1.837751 1.924734 2.474290
  H 4.022804 0.738144 4.252507
  H 2.791956 1.888649 4.750969
  H 4.022508 2.374887 3.594838
  H 2.563478 -0.639105 -1.537203
  H 5.272773 -0.082205 -0.154928
 22
 41.829200
  C 0.685926 0.127587 0.370018
  C 2.631730 0.147114 0.417892
  C 3.327305 0.622962 1.600652
  C 2.491652 1.096296 2.779024
  C 3.371580 1.561052 3.935245
  C 3.233291 -0.317438 -0.737668
  C 4.627627 -0.409965 -0.970177
  C 5.114320 -0.881145 -2.144244
  H 4.457010 -1.199815 -2.936642
  H 6.172818 -0.953615 -2.326275
  H 0.280251 0.499641 1.295128
  H 0.384679 -0.894654 0.182575
  H 0.384553 0.735541 -0.472858
  H 4.005450 1.435196 1.295673
  H 4.006002 -0.173934 1.942534
  H 1.848261 0.286350 3.128521
  H 1.847884 1.922657 2.471144
  H 4.007271 0.755118 4.294250
  H 2.756736 1.894903 4.766775
  H 4.006806 2.391669 3.636699
  H 2.588324 -0.642583 -1.545614
  H 5.319645 -0.100368 -0.200204
 22
 57.081052
  C 0.612127 0.117689 0.344465
  C 2.716451 0.146921 0.418752
  C 3.363375 0.634359 1.630917
  C 2.494418 1.101238 2.791976
  C 3.337777 1.576101 3.972429
  C 3.245500 -0.322526 -0.748956
  C 4.620228 -0.425404 -1.009638
  C 5.080471 -0.898421 -2.187989
  H 4.408196 -1.212822 -2.968452
  H 6.135118 -0.977510 -2.387620
  H 0.287403 0.500196 1.295318
  H 0.423057 -0.935099 0.168090
  H 0.423569 0.755501 -0.511588
  H 4.048000 1.449458 1.346244
  H 4.048561 -0.150483 1.989621
  H 1.852119 0.282669 3.120610
  H 1.851963 1.919320 2.462516
  H 3.972700 0.778223 4.350444
  H 2.695636 1.903280 4.786129
  H 3.972262 2.413866 3.692593
  H 2.576387 -0.638962 -1.533948
  H 5.322025 -0.118578 -0.248347
 22
 71.697102
  C 0.537524 0.130897 0.374478
  C 2.801937 0.148105 0.430852
  C 3.406840 0.631338 1.637661
  C 2.496282 1.092724 2.772633
  C 3.292585 1.578278 3.974421
  C 3.269067 -0.319567 -0.733751
  C 4.669165 -0.439231 -1.049617
  C 5.081900 -0.906947 -2.216634
  H 4.386560 -1.215930 -2.979181
  H 6.128997 -0.995634 -2.444252
  H 0.273446 0.517187 1.335933
  H 0.390632 -0.912879 0.209227
  H 0.393399 0.771556 -0.466473
  H 4.080434 1.462889 1.365753
  H 4.080685 -0.155720 2.019249
  H 1.849148 0.268260 3.080027
  H 1.853014 1.901502 2.418732
  H 3.923117 0.787669 4.375035
  H 2.619380 1.900003 4.764909
  H 3.926098 2.422681 3.712364
  H 2.572969 -0.631450 -1.502271
  H 5.390510 -0.137231 -0.307312
 22
 78.818349
  C 0.542513 0.143290 0.383513
  C 2.965971 0.145794 0.455315
  C 3.464841 0.644983 1.687200
  C 2.478091 1.094320 2.774854
  C 3.205739 1.592886 4.013564
  C 3.310018 -0.325964 -0.702381
  C 4.697974 -0.458501 -1.128551
  C 5.023155 -0.941008 -2.321685
  H 4.286210 -1.252370 -3.045265
  H 6.055626 -1.044758 -2.611119
  H 0.329073 0.538914 1.350853
  H 0.447886 -0.906997 0.228475
  H 0.457277 0.787173 -0.461635
  H 4.113198 1.501682 1.453010
  H 4.094266 -0.142718 2.126055
  H 1.833685 0.257701 3.047527
  H 1.846073 1.893187 2.384443
  H 3.827311 0.811366 4.445547
  H 2.486818 1.904118 4.767293
  H 3.838364 2.446910 3.781382
  H 2.581963 -0.642366 -1.431218
  H 5.450239 -0.146548 -0.422507
 22
 83.640874
  C 0.446420 0.140232 0.370165
  C 3.028679 0.140289 0.461264
  C 3.499896 0.643250 1.713155
  C 2.485161 1.095455 2.783343
  C 3.190347 1.604068 4.031549
  C 3.331496 -0.327485 -0.694353
  C 4.723942 -0.467780 -1.156124
  C 5.020228 -0.946850 -2.350824
  H 4.271687 -1.253570 -3.060264
  H 6.045337 -1.053221 -2.659762
  H 0.254129 0.537947 1.348237
  H 0.386008 -0.920274 0.214376
  H 0.399412 0.794603 -0.479657
  H 4.139762 1.511533 1.488619
  H 4.124013 -0.142197 2.170403
  H 1.840080 0.256601 3.048662
  H 1.860142 1.892102 2.375932
  H 3.806606 0.827791 4.478893
  H 2.457003 1.917213 4.770318
  H 3.823761 2.458418 3.805294
  H 2.586079 -0.640634 -1.413977
  H 5.488485 -0.158737 -0.460547
 22
 86.690537
  C 0.364306 0.146380 0.381924
  C 3.105691 0.147543 0.481884
  C 3.537606 0.648419 1.731335
  C 2.489351 1.092172 2.772117
  C 3.159141 1.606527 4.036875
  C 3.370583 -0.322650 -0.682164
  C 4.747706 -0.476215 -1.176184
  C 5.009223 -0.958049 -2.380157
  H 4.242042 -1.259622 -3.073734
  H 6.026814 -1.070306 -2.714258
  H 0.191843 0.542966 1.359514
  H 0.331600 -0.913149 0.228828
  H 0.344306 0.802527 -0.464380
  H 4.165822 1.523170 1.522595
  H 4.148528 -0.128727 2.204573
  H 1.848683 0.246324 3.020639
  H 1.869740 1.881795 2.346898
  H 3.770900 0.835447 4.499544
  H 2.404382 1.912870 4.756602
  H 3.790437 2.466632 3.826157
  H 2.613564 -0.629235 -1.386505
  H 5.525652 -0.173627 -0.495366
 22
 88.799589
  C 0.276284 0.149130 0.385651
  C 3.176831 0.151413 0.493382
  C 3.578539 0.655378 1.752489
  C 2.494235 1.090691 2.766047
  C 3.127320 1.611151 4.047096
  C 3.404187 -0.318328 -0.671525
  C 4.771911 -0.485741 -1.200402
  C 4.997458 -0.968600 -2.408863
  H 4.212312 -1.263539 -3.083358
  H 6.004971 -1.087837 -2.768035
  H 0.119827 0.546455 1.366795
  H 0.269215 -0.909317 0.235154
  H 0.281248 0.806660 -0.457327
  H 4.200773 1.543018 1.558268
  H 4.181897 -0.121974 2.245916
  H 1.857292 0.236330 2.997741
  H 1.880498 1.875446 2.322108
  H 3.733711 0.845893 4.525645
  H 2.351104 1.910517 4.746664
  H 3.755704 2.476897 3.852426
  H 2.629095 -0.619556 -1.362351
  H 5.567525 -0.189966 -0.535712
 22
 90.199059
  C 0.185023 0.155786 0.399918
  C 3.244852 0.158671 0.512190
  C 3.617090 0.661371 1.769916
  C 2.500068 1.086381 2.752937
  C 3.094510 1.612504 4.049587
  C 3.442497 -0.312879 -0.659135
  C 4.795802 -0.492675 -1.218326
  C 4.987829 -0.977555 -2.433045
  H 4.184721 -1.266102 -3.089674
  H 5.986232 -1.104263 -2.816054
  H 0.037276 0.552627 1.381525
  H 0.193608 -0.904886 0.250572
  H 0.204657 0.816265 -0.443163
  H 4.229737 1.553837 1.591059
  H 4.208468 -0.109421 2.277462
  H 1.867760 0.225194 2.966445
  H 1.893181 1.864417 2.290864
  H 3.695045 0.852955 4.544354
  H 2.296778 1.904293 4.727847
  H 3.719416 2.484310 3.871516
  H 2.653837 -0.607920 -1.334635
  H 5.607009 -0.204489 -0.571167
 22
 91.089356
  C 0.088919 0.160221 0.408635
  C 3.308132 0.162177 0.522629
  C 3.656184 0.667841 1.789344
  C 2.504995 1.083496 2.743385
  C 3.059838 1.615304 4.054949
  C 3.476346 -0.308454 -0.648340
  C 4.817531 -0.500377 -1.239083
  C 4.976461 -0.985987 -2.456996
  H 4.156543 -1.267707 -3.094784
  H 5.964384 -1.120210 -2.862926
  H -0.051367 0.556774 1.391063
  H 0.110092 -0.896587 0.260875
  H 0.120401 0.819590 -0.430039
  H 4.263277 1.570399 1.624866
  H 4.239960 -0.101462 2.314557
  H 1.876476 0.214566 2.939127
  H 1.904234 1.855812 2.262619
  H 3.653836 0.861679 4.566184
  H 2.240921 1.899328 4.710968
  H 3.680658 2.493162 3.893596
  H 2.670979 -0.597900 -1.309096
  H 5.645894 -0.219520 -0.609714
 22
 91.583430
  C -0.011615 0.168559 0.427364
  C 3.367051 0.168991 0.540924
  C 3.689836 0.673024 1.804847
  C 2.508272 1.077830 2.726955
  C 3.023229 1.614733 4.051972
  C 3.511110 -0.303115 -0.635458
  C 4.836915 -0.505540 -1.253788
  C 4.965435 -0.992535 -2.475982
  H 4.129824 -1.267990 -3.096275
  H 5.943708 -1.133953 -2.903136
  H -0.147860 0.565059 1.411084
  H 0.017158 -0.891946 0.279627
  H 0.026709 0.831213 -0.413307
  H 4.288607 1.579694 1.654843
  H 4.263002 -0.090105 2.343079
  H 1.884570 0.202556 2.904604
  H 1.914588 1.843203 2.228510
  H 3.610322 0.866863 4.579306
  H 2.183972 1.890723 4.685332
  H 3.639445 2.498635 3.907121
  H 2.692290 -0.586893 -1.280936
  H 5.679980 -0.231835 -0.642147
 22
 91.792589
  C -0.118163 0.173885 0.438742
  C 3.420008 0.171579 0.549801
  C 3.721225 0.679037 1.823469
  C 2.508003 1.074145 2.715285
  C 2.983201 1.616001 4.052806
  C 3.539202 -0.299074 -0.624686
  C 4.851637 -0.511856 -1.272346
  C 4.949994 -0.999141 -2.496162
  H 4.099480 -1.268365 -3.098315
  H 5.917669 -1.147391 -2.944045
  H -0.249154 0.569675 1.421928
  H -0.082664 -0.881507 0.292104
  H -0.073813 0.834162 -0.397127
  H 4.314657 1.594290 1.687536
  H 4.286825 -0.081793 2.378065
  H 1.888418 0.191943 2.875660
  H 1.921050 1.833682 2.199048
  H 3.562809 0.873781 4.596088
  H 2.124449 1.884109 4.663121
  H 3.594532 2.505731 3.924081
  H 2.704848 -0.577491 -1.254585
  H 5.710156 -0.244859 -0.678832
