 26
 0.000000
  C 1.008348 0.114814 0.336614
  C 2.484359 0.127587 0.368484
  C 3.242383 0.602792 1.551134
  C 2.439635 1.086949 2.755988
  C 3.375387 1.536226 3.874606
  C 3.139189 -0.330677 -0.771947
  C 4.523798 -0.396419 -0.936194
  C 5.182978 -0.851292 -2.070832
  C 4.555627 -1.349218 -3.312258
  H 3.472563 -1.341076 -3.292454
  O 6.493255 -0.866391 -2.109532
  H 0.555910 0.481639 1.249685
  H 0.651023 -0.899134 0.150565
  H 0.651118 0.718475 -0.499061
  H 3.902163 1.417217 1.231232
  H 3.902162 -0.206604 1.883679
  H 1.802576 0.285546 3.134128
  H 1.802840 1.927318 2.474535
  H 4.010967 0.717054 4.203738
  H 2.802126 1.880635 4.731755
  H 4.011158 2.355226 3.545580
  H 2.515295 -0.659288 -1.589930
  H 5.145190 -0.066749 -0.114932
  H 4.914071 -2.362232 -3.503364
  H 4.914368 -0.749269 -4.150395
  H 6.930793 -0.542170 -1.301363
 26
 0.837869
  C 1.026834 0.081392 0.317139
  C 2.498906 0.016623 0.399430
  C 3.243712 0.623492 1.527604
  C 2.438918 1.050639 2.753592
  C 3.369440 1.566408 3.847226
  C 3.162383 -0.586048 -0.661478
  C 4.547434 -0.621442 -0.835195
  C 5.193850 -0.919250 -2.030678
  C 4.524170 -1.193532 -3.319793
  H 3.451443 -1.063938 -3.279696
  O 6.502696 -0.928163 -2.108547
  H 0.570781 0.558570 1.175218
  H 0.614772 -0.922595 0.205001
  H 0.733808 0.623150 -0.583810
  H 3.774510 1.505465 1.148324
  H 4.021654 -0.074093 1.853231
  H 1.873877 0.201737 3.142310
  H 1.736535 1.844045 2.495253
  H 4.070246 0.795169 4.159167
  H 2.796063 1.869988 4.719594
  H 3.936268 2.427968 3.501569
  H 2.542106 -1.004360 -1.440823
  H 5.174829 -0.355512 0.005169
  H 4.759438 -2.211680 -3.631579
  H 4.945445 -0.541284 -4.083673
  H 6.967481 -0.775053 -1.264836
 26
 4.762800
  C 1.059896 0.061025 0.253900
  C 2.526015 -0.069735 0.395991
  C 3.256853 0.625244 1.481575
  C 2.446363 1.055988 2.704840
  C 3.367249 1.649863 3.766386
  C 3.174851 -0.851553 -0.542356
  C 4.567333 -0.851674 -0.734206
  C 5.178653 -0.928083 -1.975060
  C 4.456793 -0.939484 -3.266734
  H 3.395854 -0.761331 -3.156128
  O 6.485671 -0.935866 -2.101598
  H 0.604360 0.633237 1.051861
  H 0.599561 -0.925907 0.206199
  H 0.829347 0.548786 -0.694458
  H 3.728873 1.523044 1.063186
  H 4.078048 -0.012957 1.819528
  H 1.928533 0.192596 3.126267
  H 1.703937 1.807653 2.435885
  H 4.106088 0.922151 4.094703
  H 2.791439 1.956999 4.636036
  H 3.889941 2.523441 3.383589
  H 2.563731 -1.384382 -1.257186
  H 5.203387 -0.721045 0.131758
  H 4.620376 -1.900659 -3.755424
  H 4.891301 -0.189037 -3.925086
  H 6.981761 -0.948778 -1.262126
 26
 11.989511
  C 1.118105 0.036221 0.165049
  C 2.575272 -0.141988 0.373933
  C 3.286137 0.624276 1.426109
  C 2.454701 1.057995 2.637237
  C 3.353339 1.708558 3.684090
  C 3.200184 -1.086427 -0.406314
  C 4.601501 -1.031714 -0.644983
  C 5.152953 -0.912611 -1.903861
  C 4.360460 -0.690550 -3.134474
  H 3.319181 -0.486016 -2.921027
  O 6.452918 -0.942442 -2.102722
  H 0.663647 0.687019 0.901209
  H 0.618765 -0.931890 0.174330
  H 0.941945 0.467181 -0.821321
  H 3.720654 1.528109 0.982742
  H 4.127649 0.026319 1.784795
  H 1.967104 0.186282 3.076607
  H 1.688241 1.777804 2.351229
  H 4.112939 1.013497 4.035181
  H 2.764176 2.022530 4.542379
  H 3.850254 2.586656 3.278478
  H 2.598261 -1.723748 -1.040202
  H 5.266051 -1.055873 0.210277
  H 4.437957 -1.574883 -3.768394
  H 4.794809 0.130240 -3.701777
  H 6.988812 -1.094571 -1.303217
 26
 22.440498
  C 1.208685 -0.014540 0.103916
  C 2.677268 -0.177497 0.343275
  C 3.328436 0.604825 1.419281
  C 2.442896 1.082858 2.571864
  C 3.296591 1.803230 3.610533
  C 3.234192 -1.242813 -0.308297
  C 4.632552 -1.136440 -0.607691
  C 5.114183 -0.872398 -1.869973
  C 4.277298 -0.426475 -3.007178
  H 3.275314 -0.163590 -2.694701
  O 6.397511 -0.997340 -2.151982
  H 0.746640 0.673109 0.801002
  H 0.721524 -0.984158 0.163172
  H 1.048647 0.371376 -0.901802
  H 3.782784 1.501763 0.979645
  H 4.161894 0.025183 1.825519
  H 1.962885 0.223357 3.041553
  H 1.677606 1.775145 2.222306
  H 4.054403 1.141737 4.023139
  H 2.673668 2.152148 4.430460
  H 3.793145 2.667785 3.174482
  H 2.625652 -1.939199 -0.870469
  H 5.336303 -1.347547 0.192639
  H 4.227868 -1.229971 -3.742778
  H 4.752923 0.415149 -3.504746
  H 6.956380 -1.275137 -1.404869
 26
 39.242513
  C 1.344235 -0.025357 0.002131
  C 2.829237 -0.281948 0.329073
  C 3.407740 0.583694 1.382493
  C 2.456379 1.122846 2.446924
  C 3.264433 1.813703 3.539672
  C 3.236360 -1.486715 -0.178763
  C 4.611106 -1.300872 -0.578433
  C 5.016414 -0.825314 -1.797073
  C 4.140231 -0.266135 -2.856283
  H 3.138573 -0.077012 -2.496188
  O 6.305167 -0.859337 -2.119177
  H 0.906454 0.725304 0.648829
  H 0.800274 -0.962008 0.093195
  H 1.273761 0.318269 -1.025830
  H 3.940666 1.420355 0.939390
  H 4.133487 -0.045922 1.919101
  H 1.900178 0.297961 2.887995
  H 1.749933 1.847506 2.034712
  H 3.956227 1.120569 4.018201
  H 2.599594 2.207259 4.302671
  H 3.836708 2.642648 3.132618
  H 2.611474 -2.262838 -0.597902
  H 5.364587 -1.614963 0.137827
  H 4.100110 -0.967079 -3.690405
  H 4.578823 0.651365 -3.243626
  H 6.897294 -1.151097 -1.407391
 26
 67.422986
  C 1.358024 -0.042487 0.068081
  C 3.037318 -0.293986 0.308542
  C 3.464308 0.541866 1.452292
  C 2.461308 1.122955 2.451650
  C 3.224411 1.829996 3.567318
  C 3.129479 -1.477527 -0.298589
  C 4.548863 -1.208350 -0.595861
  C 5.005861 -0.779597 -1.819106
  C 4.156229 -0.306752 -2.930768
  H 3.137965 -0.121160 -2.612010
  O 6.297858 -0.843048 -2.095518
  H 0.963123 0.637185 0.796079
  H 0.951772 -1.031713 0.177893
  H 1.311305 0.344865 -0.938308
  H 4.039156 1.389026 1.056811
  H 4.189558 -0.053333 2.023266
  H 1.840473 0.333403 2.875508
  H 1.823140 1.860404 1.964554
  H 3.860487 1.133799 4.109321
  H 2.525185 2.261404 4.279620
  H 3.845404 2.630117 3.172395
  H 2.471053 -2.184502 -0.753993
  H 5.262687 -1.511748 0.161084
  H 4.151704 -1.061036 -3.717773
  H 4.592350 0.588875 -3.368672
  H 6.854624 -1.206841 -1.381320
 26
 92.774758
  C 1.070097 -0.056685 0.051160
  C 3.172357 -0.436515 0.340842
  C 3.596219 0.479587 1.397158
  C 2.558287 1.084731 2.348265
  C 3.270673 1.884688 3.433955
  C 3.083243 -1.574403 -0.295679
  C 4.525868 -1.282015 -0.538770
  C 5.009505 -0.754010 -1.725077
  C 4.159306 -0.157575 -2.779384
  H 3.150682 0.024622 -2.428608
  O 6.294789 -0.797411 -2.010055
  H 0.696336 0.635815 0.775007
  H 0.766537 -1.074378 0.184455
  H 1.165520 0.310399 -0.952166
  H 4.149571 1.306871 0.941311
  H 4.303207 -0.088194 2.016193
  H 1.968392 0.293495 2.810993
  H 1.893939 1.753303 1.805496
  H 3.923771 1.248471 4.027083
  H 2.542621 2.334531 4.104043
  H 3.868437 2.683172 3.000689
  H 2.406793 -2.234575 -0.784761
  H 5.232098 -1.728162 0.151444
  H 4.126870 -0.833268 -3.634335
  H 4.612402 0.765497 -3.135482
  H 6.862500 -1.169208 -1.311462
 26
 97.732887
  C 0.795501 -0.071595 0.090055
  C 3.288922 -0.492004 0.360132
  C 3.728896 0.436486 1.385865
  C 2.660059 1.046279 2.299768
  C 3.325139 1.888946 3.382591
  C 3.092368 -1.569483 -0.314124
  C 4.557861 -1.292591 -0.497390
  C 5.067468 -0.744591 -1.670180
  C 4.217640 -0.127213 -2.709074
  H 3.208419 0.046427 -2.354977
  O 6.341976 -0.783126 -1.952854
  H 0.408878 0.601259 0.825581
  H 0.581121 -1.109683 0.225099
  H 0.935962 0.305587 -0.901821
  H 4.282775 1.252497 0.914580
  H 4.432241 -0.115391 2.020785
  H 2.073611 0.254304 2.765953
  H 1.995776 1.681154 1.717109
  H 3.974697 1.281613 4.008873
  H 2.570340 2.340397 4.021382
  H 3.917876 2.688660 2.944426
  H 2.397671 -2.188579 -0.828626
  H 5.245469 -1.784848 0.180508
  H 4.186805 -0.784883 -3.577710
  H 4.669850 0.802924 -3.046683
  H 6.915764 -1.170207 -1.264567
 26
 96.285545
  C 0.541165 -0.092914 0.170305
  C 3.399542 -0.499770 0.374444
  C 3.834781 0.429735 1.394013
  C 2.714070 1.026856 2.254749
  C 3.304217 1.917157 3.342226
  C 3.100545 -1.516775 -0.342950
  C 4.589353 -1.298292 -0.501901
  C 5.117449 -0.752759 -1.675557
  C 4.283730 -0.084069 -2.693112
  H 3.286817 0.130194 -2.325546
  O 6.378918 -0.840250 -1.970260
  H 0.153366 0.556764 0.925239
  H 0.418906 -1.144906 0.309062
  H 0.678636 0.299059 -0.814418
  H 4.394522 1.244153 0.926697
  H 4.525557 -0.107485 2.053734
  H 2.136258 0.224627 2.714086
  H 2.048968 1.618046 1.626845
  H 3.947314 1.346677 4.008602
  H 2.508858 2.356495 3.938944
  H 3.887063 2.726709 2.909120
  H 2.371387 -2.075930 -0.874252
  H 5.257078 -1.859232 0.142050
  H 4.215449 -0.727334 -3.570761
  H 4.773603 0.829407 -3.025365
  H 6.948110 -1.265406 -1.299608
 26
 94.322223
  C 0.377829 -0.085451 0.190304
  C 3.485323 -0.479098 0.361575
  C 3.898234 0.442203 1.397686
  C 2.732315 1.020726 2.210324
  C 3.254142 1.939018 3.308808
  C 3.112911 -1.482352 -0.339284
  C 4.614460 -1.297803 -0.509717
  C 5.135339 -0.760760 -1.695208
  C 4.303840 -0.033229 -2.671335
  H 3.334186 0.231718 -2.265646
  O 6.378034 -0.903438 -2.028380
  H -0.010017 0.566552 0.942900
  H 0.311626 -1.138856 0.352566
  H 0.505330 0.294265 -0.800136
  H 4.466748 1.262416 0.952090
  H 4.569911 -0.094163 2.076167
  H 2.158126 0.207961 2.655902
  H 2.072843 1.582015 1.548799
  H 3.882628 1.392301 4.008247
  H 2.424558 2.365872 3.866696
  H 3.835339 2.756977 2.889478
  H 2.365331 -2.020127 -0.865747
  H 5.275339 -1.901540 0.102378
  H 4.167653 -0.659829 -3.553370
  H 4.832557 0.854733 -3.013457
  H 6.948714 -1.370732 -1.386592
 26
 93.124112
  C 0.313123 -0.053798 0.227826
  C 3.585669 -0.443388 0.343933
  C 3.952550 0.475622 1.398156
  C 2.742523 1.006512 2.177253
  C 3.191981 1.935914 3.294862
  C 3.130515 -1.437470 -0.322640
  C 4.643252 -1.292855 -0.513470
  C 5.152948 -0.778918 -1.721241
  C 4.315071 -0.010247 -2.661771
  H 3.375598 0.301796 -2.214571
  O 6.371673 -0.970242 -2.091370
  H -0.072960 0.608057 0.970674
  H 0.283020 -1.103586 0.422705
  H 0.408240 0.299699 -0.775351
  H 4.509473 1.317741 0.977629
  H 4.623811 -0.051574 2.084550
  H 2.186667 0.172465 2.603406
  H 2.079805 1.543543 1.494402
  H 3.811220 1.406809 4.014679
  H 2.328892 2.334347 3.823287
  H 3.760943 2.771251 2.901020
  H 2.364315 -1.963281 -0.838060
  H 5.301091 -1.920606 0.077189
  H 4.112053 -0.626274 -3.535935
  H 4.870497 0.852640 -3.029208
  H 6.944207 -1.466274 -1.471573
 26
 89.071171
  C 0.311314 0.217511 0.139093
  C 3.853647 -0.610880 0.477801
  C 4.095995 0.425405 1.460994
  C 2.788854 0.778965 2.184623
  C 2.989259 1.949290 3.136489
  C 3.270398 -1.557594 -0.152128
  C 4.766401 -1.413492 -0.523858
  C 5.140039 -0.800176 -1.738286
  C 4.263911 0.146147 -2.443504
  H 3.501166 0.564029 -1.793235
  O 6.271334 -1.040314 -2.307244
  H -0.169413 0.995092 0.695675
  H 0.275505 -0.781461 0.513336
  H 0.598893 0.402670 -0.871541
  H 4.506497 1.309719 0.968125
  H 4.839983 0.077396 2.183021
  H 2.436149 -0.089023 2.738206
  H 2.022096 1.021797 1.441907
  H 3.735309 1.710215 3.893297
  H 2.058789 2.185754 3.643812
  H 3.316718 2.836500 2.599049
  H 2.460036 -2.152237 -0.484280
  H 5.463787 -2.128381 -0.095187
  H 3.769115 -0.385482 -3.259395
  H 4.859374 0.927580 -2.908130
  H 6.861021 -1.681146 -1.862261
