 23
 0.000000
  H 1.552443 0.159622 0.450802
  C 2.633441 0.140113 0.402885
  C 3.353497 0.617798 1.590511
  C 2.442328 1.075573 2.726836
  C 3.250986 1.558335 3.927985
  C 3.207309 -0.327349 -0.760338
  C 4.582890 -0.414935 -0.979803
  C 5.191313 -0.881901 -2.146968
  C 4.477322 -1.361819 -3.347014
  H 3.394846 -1.322949 -3.251222
  O 6.494444 -0.922095 -2.247790
  H 4.020137 1.442368 1.308739
  H 4.019548 -0.172546 1.958599
  H 1.797847 0.250594 3.038147
  H 1.798931 1.887092 2.379659
  H 3.882982 0.762497 4.317068
  H 2.587454 1.880657 4.727716
  H 3.884143 2.401046 3.657688
  H 2.537900 -0.643118 -1.547174
  H 5.242224 -0.096253 -0.183594
  H 4.795451 -2.383085 -3.565548
  H 4.796180 -0.773525 -4.209582
  H 6.982211 -0.606198 -1.460483
 23
 -0.517625
  H 1.574835 0.073025 0.468096
  C 2.654257 0.099410 0.407396
  C 3.364520 0.613469 1.583966
  C 2.447226 1.040328 2.726141
  C 3.246840 1.559109 3.916003
  C 3.235618 -0.348605 -0.757933
  C 4.613629 -0.380931 -0.990177
  C 5.212796 -0.837479 -2.167279
  C 4.473366 -1.322892 -3.348486
  H 3.487241 -0.883840 -3.435607
  O 6.509870 -0.879632 -2.291371
  H 3.994610 1.462464 1.292340
  H 4.065699 -0.146982 1.950163
  H 1.838152 0.192559 3.045954
  H 1.769166 1.823323 2.380973
  H 3.912989 0.790766 4.301407
  H 2.579660 1.857975 4.720129
  H 3.843248 2.424474 3.636315
  H 2.574150 -0.704826 -1.533655
  H 5.265346 -0.033460 -0.199786
  H 4.363977 -2.406977 -3.277081
  H 5.056942 -1.125140 -4.245727
  H 7.018346 -0.580466 -1.512770
 23
 -0.032197
  H 1.606172 -0.000425 0.473272
  C 2.685839 0.036199 0.421790
  C 3.379215 0.565082 1.601990
  C 2.444376 1.012221 2.720748
  C 3.225225 1.567054 3.907894
  C 3.279113 -0.385293 -0.746143
  C 4.656381 -0.353445 -0.990206
  C 5.229651 -0.763122 -2.196088
  C 4.443121 -1.289767 -3.332187
  H 3.688618 -0.578341 -3.662211
  O 6.520375 -0.847695 -2.344918
  H 4.014985 1.407225 1.308667
  H 4.071392 -0.193580 1.992029
  H 1.838344 0.166185 3.054500
  H 1.765059 1.779731 2.347330
  H 3.895871 0.815747 4.317796
  H 2.545520 1.876802 4.698107
  H 3.815235 2.433470 3.614637
  H 2.631295 -0.801896 -1.506762
  H 5.273483 0.125239 -0.242848
  H 3.928821 -2.203305 -3.032927
  H 5.112754 -1.522217 -4.155003
  H 7.051809 -0.553229 -1.579664
 23
 11.632037
  H 1.636126 0.133624 0.409179
  C 2.717406 0.184046 0.360181
  C 3.400852 0.572116 1.601448
  C 2.451365 1.014076 2.705269
  C 3.208834 1.439864 3.957687
  C 3.315845 -0.191789 -0.817091
  C 4.723851 -0.199927 -1.033071
  C 5.174972 -0.611915 -2.289006
  C 4.423936 -1.481336 -3.227452
  H 3.665645 -0.935292 -3.783992
  O 6.470997 -0.771446 -2.463120
  H 4.126295 1.371358 1.417911
  H 3.992249 -0.275799 1.983109
  H 1.770927 0.197899 2.955915
  H 1.843428 1.849910 2.363535
  H 3.809842 0.627538 4.348283
  H 2.514612 1.754573 4.730648
  H 3.864002 2.283255 3.743074
  H 2.670793 -0.534744 -1.606644
  H 5.168686 0.412331 -0.267056
  H 3.925516 -2.276637 -2.669071
  H 5.131623 -1.911418 -3.930864
  H 7.044513 -0.353908 -1.787166
 23
 46.618073
  H 1.653306 0.282788 0.375940
  C 2.729089 0.204116 0.390404
  C 3.398630 0.612975 1.632714
  C 2.453628 1.068739 2.725143
  C 3.187928 1.406222 3.998811
  C 3.335593 -0.188442 -0.774180
  C 4.787940 -0.215367 -1.015676
  C 5.012085 -0.544081 -2.371073
  C 4.444774 -1.574869 -3.269033
  H 3.576131 -1.231392 -3.839270
  O 6.348660 -0.632150 -2.602935
  H 4.154267 1.406390 1.488714
  H 3.976653 -0.209585 2.053647
  H 1.716047 0.292529 2.935734
  H 1.889988 1.941236 2.385501
  H 3.768315 0.540110 4.340932
  H 2.494666 1.656814 4.784654
  H 3.880005 2.215229 3.850094
  H 2.687317 -0.515208 -1.575131
  H 5.011806 0.364791 -0.142424
  H 4.156317 -2.429264 -2.677977
  H 5.237510 -1.870369 -3.956655
  H 6.952182 -0.297125 -1.916696
 23
 93.180500
  H 1.589108 0.196877 0.528425
  C 2.670294 0.169030 0.461612
  C 3.398593 0.617323 1.666606
  C 2.471057 1.055182 2.796186
  C 3.257319 1.529611 4.011538
  C 3.209118 -0.265284 -0.723668
  C 4.703996 -0.301226 -1.011063
  C 4.732131 -0.648251 -2.321483
  C 4.579148 -1.516437 -3.509591
  H 3.671306 -1.292944 -4.082073
  O 6.256640 -0.761684 -2.379415
  H 4.031670 1.474118 1.405115
  H 4.047047 -0.183251 2.036164
  H 1.832940 0.223484 3.089628
  H 1.821646 1.860108 2.451990
  H 3.891397 0.738400 4.398254
  H 2.577330 1.826432 4.806428
  H 3.879452 2.388336 3.767381
  H 2.547140 -0.603516 -1.508674
  H 4.838762 0.239629 -0.099161
  H 4.537743 -2.552253 -3.171030
  H 5.445612 -1.388533 -4.145488
  H 6.819630 -0.512842 -1.627789
 23
 128.303883
  H 1.541431 0.208488 0.505854
  C 2.623625 0.158119 0.413696
  C 3.389022 0.612028 1.609060
  C 2.483609 1.071262 2.755751
  C 3.308510 1.525184 3.955206
  C 3.071117 -0.291018 -0.744646
  C 4.698670 -0.341661 -1.033680
  C 4.582113 -0.764979 -2.240765
  C 4.533285 -1.482380 -3.474035
  H 3.539983 -1.434412 -3.935770
  O 6.426813 -0.723301 -2.120211
  H 4.035255 1.455645 1.338891
  H 4.018920 -0.200543 1.987585
  H 1.835775 0.249363 3.065927
  H 1.844945 1.890569 2.419655
  H 3.940077 0.717358 4.320106
  H 2.656705 1.833018 4.769508
  H 3.945247 2.368036 3.695566
  H 2.442473 -0.635572 -1.543393
  H 4.831759 0.129474 -0.065913
  H 4.796368 -2.526625 -3.304483
  H 5.255494 -1.033044 -4.160261
  H 6.982097 -0.490881 -1.369602
 23
 132.063550
  H 1.561589 0.211137 0.463430
  C 2.646165 0.162336 0.366070
  C 3.410801 0.609752 1.563015
  C 2.497731 1.058848 2.708267
  C 3.311997 1.518635 3.912071
  C 3.061923 -0.284099 -0.800374
  C 4.723146 -0.360964 -1.030215
  C 4.555794 -0.760035 -2.219858
  C 4.398242 -1.474407 -3.452634
  H 3.361279 -1.414287 -3.836092
  O 6.640714 -0.672718 -1.836405
  H 4.050380 1.459076 1.291547
  H 4.043634 -0.203176 1.930962
  H 1.857207 0.227703 3.010684
  H 1.852807 1.873796 2.373481
  H 3.950608 0.716616 4.277090
  H 2.653822 1.820510 4.723134
  H 3.942123 2.368106 3.655426
  H 2.408480 -0.603001 -1.589678
  H 4.952658 0.065329 -0.086343
  H 4.659111 -2.535767 -3.324196
  H 5.084415 -1.014944 -4.209507
  H 7.147630 -0.474904 -1.041693
 23
 133.941205
  H 1.602865 0.166251 0.451050
  C 2.686216 0.120378 0.342857
  C 3.454810 0.582955 1.531840
  C 2.547165 1.041889 2.676099
  C 3.368049 1.521526 3.868644
  C 3.087102 -0.337973 -0.818478
  C 4.834753 -0.390884 -1.006324
  C 4.514304 -0.779540 -2.162159
  C 4.314562 -1.410685 -3.401738
  H 3.286020 -1.317444 -3.759568
  O 6.673292 -0.615916 -1.607533
  H 4.089091 1.429864 1.248390
  H 4.093817 -0.223070 1.903520
  H 1.911107 0.214543 2.993626
  H 1.900889 1.852441 2.335278
  H 4.010597 0.727074 4.242750
  H 2.714197 1.833996 4.678871
  H 3.993703 2.368797 3.595763
  H 2.420981 -0.668501 -1.593027
  H 5.066994 0.077778 -0.080972
  H 4.571865 -2.470393 -3.333888
  H 4.963581 -0.922635 -4.138547
  H 7.151747 -0.406733 -0.796207
 23
 119.886504
  H 1.635906 0.070495 0.354567
  C 2.712553 0.035542 0.233158
  C 3.476813 0.498873 1.424780
  C 2.572672 0.938893 2.580607
  C 3.396099 1.513362 3.728148
  C 3.090452 -0.399725 -0.940415
  C 5.085408 -0.388353 -0.928089
  C 4.508742 -0.652925 -2.031733
  C 4.117723 -1.280417 -3.253736
  H 3.082915 -1.090957 -3.533831
  O 6.636562 -0.516260 -1.250188
  H 4.092147 1.363762 1.133221
  H 4.132567 -0.292934 1.781131
  H 1.986043 0.093515 2.941455
  H 1.879350 1.709138 2.228145
  H 4.044621 0.756457 4.160284
  H 2.744936 1.887286 4.515092
  H 4.015499 2.342263 3.383781
  H 2.398025 -0.754406 -1.685723
  H 5.424488 0.144332 -0.070365
  H 4.271449 -2.360824 -3.180440
  H 4.735272 -0.885191 -4.051572
  H 7.112915 -0.316402 -0.425815
 23
 89.982038
  H 1.697040 0.290081 0.200916
  C 2.771409 0.141032 0.151866
  C 3.502406 0.587382 1.349530
  C 2.572378 1.026565 2.476661
  C 3.353679 1.364218 3.735945
  C 3.178984 -0.456580 -1.000761
  C 5.251990 -0.320132 -0.913129
  C 4.464313 -0.605222 -1.920844
  C 3.992812 -1.345753 -3.068989
  H 2.906821 -1.301996 -3.218066
  O 6.687297 -0.409364 -1.339671
  H 4.193320 1.382172 1.092520
  H 4.060706 -0.272520 1.735924
  H 1.915525 0.189136 2.714604
  H 1.929028 1.867369 2.183366
  H 3.982245 0.512961 4.047363
  H 2.678049 1.613596 4.550626
  H 3.993724 2.213492 3.575038
  H 2.413238 -0.815309 -1.683815
  H 5.491396 0.266629 -0.072406
  H 4.309949 -2.400210 -2.974441
  H 4.477936 -0.944060 -3.968055
  H 7.248622 -0.200088 -0.572520
 23
 49.161450
  H 1.642074 0.105493 0.298343
  C 2.717768 0.028503 0.173571
  C 3.464531 0.498201 1.350547
  C 2.559300 0.917216 2.515685
  C 3.376147 1.473174 3.675043
  C 3.083989 -0.387619 -1.070178
  C 5.288236 -0.402060 -0.913880
  C 4.359951 -0.527528 -1.881272
  C 4.023110 -1.257155 -3.107103
  H 2.960774 -1.284780 -3.316442
  O 6.612521 -0.601528 -1.301111
  H 4.046466 1.380021 1.068209
  H 4.191475 -0.241787 1.704689
  H 1.948723 0.085764 2.860881
  H 1.885542 1.702748 2.158605
  H 4.051669 0.721481 4.065554
  H 2.722700 1.799184 4.485489
  H 3.970635 2.320123 3.357450
  H 2.268176 -0.574165 -1.750375
  H 5.406827 0.122322 0.012715
  H 4.415271 -2.280783 -3.043598
  H 4.529324 -0.786924 -3.957234
  H 7.213803 -0.514337 -0.532701
 23
 20.377096
  H 1.564994 0.125867 0.330026
  C 2.637963 0.089139 0.164706
  C 3.423873 0.510813 1.336765
  C 2.546081 0.953822 2.510112
  C 3.401564 1.438345 3.675554
  C 2.993084 -0.350748 -1.083238
  C 5.340660 -0.372919 -0.965417
  C 4.242267 -0.460209 -1.792636
  C 4.113925 -1.268293 -3.030138
  H 3.080520 -1.461609 -3.291583
  O 6.560012 -0.567248 -1.438764
  H 4.051372 1.365597 1.062427
  H 4.081530 -0.297264 1.671504
  H 1.916167 0.127134 2.836828
  H 1.903270 1.770099 2.180479
  H 4.034263 0.635040 4.051369
  H 2.768369 1.762800 4.499711
  H 4.032785 2.274279 3.381228
  H 2.148066 -0.616143 -1.706413
  H 5.365280 0.081676 0.008797
  H 4.642681 -2.211889 -2.897902
  H 4.593662 -0.766718 -3.873566
  H 7.258268 -0.454168 -0.766053
 23
 8.169943
  H 1.492714 0.179750 0.345700
  C 2.560844 0.110918 0.177477
  C 3.375477 0.536736 1.327916
  C 2.532654 0.993389 2.519870
  C 3.414885 1.431013 3.684250
  C 2.916594 -0.366961 -1.055981
  C 5.365545 -0.400699 -0.971210
  C 4.176666 -0.586762 -1.670856
  C 4.190030 -1.271260 -2.987284
  H 3.230259 -1.716508 -3.222701
  O 6.514700 -0.620208 -1.539348
  H 4.036459 1.360107 1.035755
  H 4.013900 -0.290991 1.656729
  H 1.888721 0.175535 2.848848
  H 1.888852 1.823161 2.222993
  H 4.043986 0.611629 4.024485
  H 2.803268 1.753847 4.522862
  H 4.054472 2.262704 3.397069
  H 2.078335 -0.607435 -1.697698
  H 5.369840 0.032158 0.018461
  H 4.972601 -2.027862 -3.011249
  H 4.436616 -0.558159 -3.777432
  H 7.293284 -0.485942 -0.965179
 23
 6.544674
  H 1.445773 0.181644 0.352695
  C 2.514690 0.087204 0.190017
  C 3.348329 0.520996 1.327335
  C 2.528657 0.994721 2.530672
  C 3.433274 1.440712 3.673391
  C 2.877600 -0.418193 -1.029727
  C 5.365383 -0.407786 -0.974468
  C 4.146227 -0.669412 -1.602955
  C 4.213583 -1.241083 -2.977942
  H 3.238726 -1.528380 -3.350699
  O 6.476704 -0.661550 -1.591806
  H 4.006810 1.341343 1.011456
  H 3.998836 -0.302638 1.649419
  H 1.884366 0.186307 2.878525
  H 1.887677 1.826361 2.235760
  H 4.072125 0.626017 4.003485
  H 2.838974 1.764632 4.522903
  H 4.062408 2.272727 3.368662
  H 2.054778 -0.673205 -1.679945
  H 5.393428 0.004010 0.025391
  H 4.881111 -2.099997 -2.996504
  H 4.650063 -0.511311 -3.658712
  H 7.288637 -0.482039 -1.083655
