 23
 0.000000
  C 0.998141 0.114782 0.342559
  C 2.472326 0.131764 0.379508
  C 3.224899 0.608674 1.563760
  C 2.410436 1.088756 2.759087
  H 3.076914 1.408190 3.552088
  C 3.128981 -0.325749 -0.758290
  C 4.511695 -0.394949 -0.928379
  C 5.162344 -0.853222 -2.070747
  C 4.523267 -1.348783 -3.308346
  H 3.445314 -1.353008 -3.321221
  O 6.474589 -0.878253 -2.132035
  H 0.540715 0.479701 1.253730
  H 0.646495 -0.900772 0.153485
  H 0.640934 0.716222 -0.494777
  H 3.883709 1.423939 1.245112
  H 3.885071 -0.199150 1.898038
  H 1.777788 0.292470 3.146020
  H 1.776510 1.930380 2.487318
  H 2.494771 -0.651303 -1.568937
  H 5.140180 -0.067328 -0.111017
  H 4.893811 -2.358120 -3.495670
  H 4.895311 -0.748882 -4.140672
  H 6.929275 -0.557386 -1.330642
 23
 1.816173
  C 1.050847 0.116845 0.282300
  C 2.520044 0.163475 0.404575
  C 3.234156 0.622276 1.617067
  C 2.366192 1.085814 2.777454
  H 2.999150 1.398593 3.603148
  C 3.167396 -0.298850 -0.723622
  C 4.546126 -0.371150 -0.929057
  C 5.169413 -0.856271 -2.088116
  C 4.470544 -1.374387 -3.285323
  H 3.393711 -1.351128 -3.199883
  O 6.481629 -0.883866 -2.192599
  H 0.509204 0.374057 1.184843
  H 0.809508 -0.901229 -0.055735
  H 0.718910 0.773763 -0.525345
  H 3.905824 1.438292 1.330792
  H 3.884057 -0.188606 1.960775
  H 1.723508 0.284762 3.134613
  H 1.745139 1.931400 2.492233
  H 2.462683 -0.643150 -1.487360
  H 5.191986 -0.023231 -0.132570
  H 4.803792 -2.394970 -3.474496
  H 4.783904 -0.796252 -4.154829
  H 6.963746 -0.546637 -1.415011
 23
 5.091046
  C 1.096470 0.110802 0.256691
  C 2.552553 0.182053 0.427956
  C 3.235939 0.634505 1.651777
  C 2.331275 1.090532 2.783166
  H 2.935225 1.408051 3.630580
  C 3.197264 -0.292330 -0.708665
  C 4.559811 -0.364509 -0.940334
  C 5.158835 -0.862074 -2.099399
  C 4.432278 -1.395871 -3.268028
  H 3.356966 -1.367092 -3.147225
  O 6.466334 -0.888622 -2.231644
  H 0.502560 0.215339 1.152922
  H 0.958883 -0.851143 -0.267662
  H 0.780418 0.876285 -0.457131
  H 3.912244 1.451840 1.386443
  H 3.878358 -0.176152 2.006156
  H 1.685396 0.284496 3.119334
  H 1.714471 1.930323 2.477019
  H 2.444182 -0.643142 -1.411859
  H 5.214747 -0.002143 -0.159708
  H 4.756840 -2.420238 -3.450220
  H 4.719350 -0.828850 -4.153564
  H 6.964842 -0.539380 -1.467997
 23
 11.415442
  C 1.136055 0.105942 0.222281
  C 2.579473 0.199344 0.439577
  C 3.238023 0.646742 1.686185
  C 2.297300 1.092033 2.798822
  H 2.871187 1.407388 3.661184
  C 3.221534 -0.276139 -0.695412
  C 4.577873 -0.349994 -0.949106
  C 5.152008 -0.865810 -2.108357
  C 4.395194 -1.418252 -3.256643
  H 3.323788 -1.384191 -3.114409
  O 6.454806 -0.896808 -2.266757
  H 0.503449 0.090608 1.104862
  H 1.098157 -0.785592 -0.422780
  H 0.813824 0.938698 -0.408330
  H 3.921273 1.471045 1.443887
  H 3.876721 -0.165891 2.049921
  H 1.647648 0.280313 3.111590
  H 1.682865 1.927941 2.478942
  H 2.422515 -0.647821 -1.347770
  H 5.245404 0.025343 -0.185611
  H 4.712309 -2.446117 -3.429107
  H 4.664640 -0.866783 -4.156596
  H 6.967153 -0.537986 -1.521901
 23
 18.782255
  C 1.148932 0.091110 0.219735
  C 2.594382 0.206652 0.457892
  C 3.235188 0.661901 1.696736
  C 2.276827 1.103622 2.792225
  H 2.832667 1.430034 3.657008
  C 3.238007 -0.275287 -0.676466
  C 4.596669 -0.356537 -0.949267
  C 5.151846 -0.875079 -2.113045
  C 4.375713 -1.415164 -3.252624
  H 3.306051 -1.364192 -3.095159
  O 6.453012 -0.919604 -2.285414
  H 0.508085 -0.047825 1.081380
  H 1.195863 -0.728316 -0.541654
  H 0.798894 0.979730 -0.318522
  H 3.915293 1.488992 1.457611
  H 3.875620 -0.144984 2.069828
  H 1.632205 0.287855 3.100662
  H 1.657233 1.928367 2.458283
  H 2.378964 -0.652614 -1.297622
  H 5.276391 0.013546 -0.194023
  H 4.674797 -2.446221 -3.430207
  H 4.641590 -0.867237 -4.153873
  H 6.980489 -0.567270 -1.540459
 23
 28.959633
  C 1.163140 0.067274 0.217394
  C 2.602831 0.197437 0.469379
  C 3.230884 0.679345 1.705900
  C 2.256249 1.126583 2.785900
  H 2.804452 1.481431 3.658741
  C 3.251936 -0.287503 -0.663813
  C 4.605127 -0.377704 -0.942973
  C 5.147807 -0.887525 -2.119812
  C 4.359895 -1.394085 -3.255852
  H 3.293132 -1.325639 -3.091235
  O 6.448314 -0.949496 -2.303352
  H 0.519008 -0.164547 1.065929
  H 1.290007 -0.696379 -0.626786
  H 0.786143 0.974421 -0.243378
  H 3.903458 1.509785 1.459748
  H 3.876344 -0.113721 2.096616
  H 1.619499 0.304053 3.103528
  H 1.624427 1.937264 2.429182
  H 2.342230 -0.647772 -1.259607
  H 5.297402 -0.028753 -0.179230
  H 4.638935 -2.426562 -3.449210
  H 4.631400 -0.837965 -4.149634
  H 6.986064 -0.617603 -1.557491
 23
 39.955310
  C 1.166880 0.044551 0.222853
  C 2.604259 0.190530 0.474397
  C 3.229055 0.697299 1.708801
  C 2.246838 1.146846 2.783980
  H 2.786636 1.522139 3.646959
  C 3.257289 -0.295224 -0.656573
  C 4.609501 -0.397157 -0.934935
  C 5.146230 -0.896666 -2.117852
  C 4.350059 -1.374474 -3.263331
  H 3.292353 -1.289352 -3.098024
  O 6.444894 -0.973736 -2.301682
  H 0.545250 -0.258212 1.048192
  H 1.354102 -0.674197 -0.687600
  H 0.747909 0.975156 -0.189768
  H 3.890277 1.531226 1.451942
  H 3.885404 -0.084021 2.111244
  H 1.622662 0.319644 3.114474
  H 1.602600 1.941025 2.415736
  H 2.296683 -0.645762 -1.231182
  H 5.299568 -0.075766 -0.170307
  H 4.610355 -2.410015 -3.471302
  H 4.632023 -0.810728 -4.149664
  H 6.987653 -0.658997 -1.548225
 23
 50.746766
  C 1.161535 0.019106 0.236189
  C 2.601725 0.183839 0.475378
  C 3.226130 0.720994 1.701916
  C 2.243654 1.170283 2.770911
  H 2.780418 1.572343 3.623941
  C 3.261084 -0.302366 -0.651058
  C 4.614318 -0.423897 -0.920889
  C 5.148709 -0.907563 -2.111564
  C 4.347309 -1.339914 -3.274742
  H 3.284614 -1.228102 -3.111591
  O 6.445213 -1.007973 -2.289196
  H 0.560888 -0.347120 1.058901
  H 1.382483 -0.661714 -0.740150
  H 0.712645 0.933277 -0.125714
  H 3.873623 1.564076 1.427865
  H 3.895148 -0.041360 2.114151
  H 1.639839 0.341277 3.118309
  H 1.584367 1.942342 2.392467
  H 2.242206 -0.649452 -1.219479
  H 5.308306 -0.139608 -0.137511
  H 4.580426 -2.378326 -3.503929
  H 4.650939 -0.764416 -4.147626
  H 6.989091 -0.720524 -1.524751
 23
 60.990929
  C 1.156549 -0.006153 0.262721
  C 2.595477 0.170107 0.475189
  C 3.222655 0.741584 1.685001
  C 2.243239 1.195742 2.753911
  H 2.782278 1.628108 3.591937
  C 3.261862 -0.313680 -0.642584
  C 4.615889 -0.455280 -0.904951
  C 5.149272 -0.915646 -2.101122
  C 4.347969 -1.292819 -3.282608
  H 3.290381 -1.154058 -3.125716
  O 6.449250 -1.041612 -2.273011
  H 0.583320 -0.407135 1.088106
  H 1.394413 -0.679759 -0.771057
  H 0.672524 0.901443 -0.083701
  H 3.851365 1.589516 1.386889
  H 3.905701 0.001129 2.105326
  H 1.657447 0.360225 3.128356
  H 1.562629 1.948846 2.364210
  H 2.190138 -0.669782 -1.215686
  H 5.304982 -0.218764 -0.108392
  H 4.551898 -2.328957 -3.537432
  H 4.676228 -0.704010 -4.134265
  H 6.989175 -0.791118 -1.501691
 23
 69.536168
  C 1.148700 -0.063121 0.305832
  C 2.590867 0.145059 0.481021
  C 3.220335 0.784334 1.658995
  C 2.241496 1.249637 2.727762
  H 2.778898 1.737910 3.535012
  C 3.266538 -0.340761 -0.622705
  C 4.616873 -0.517485 -0.877590
  C 5.148586 -0.930284 -2.088978
  C 4.350841 -1.194639 -3.302984
  H 3.300811 -1.001013 -3.154054
  O 6.444685 -1.108053 -2.250752
  H 0.610581 -0.492138 1.140489
  H 1.393668 -0.743693 -0.793120
  H 0.622553 0.817840 -0.049267
  H 3.811195 1.638352 1.314881
  H 3.938547 0.080299 2.098363
  H 1.695713 0.413228 3.149008
  H 1.528756 1.957878 2.321064
  H 2.144313 -0.726869 -1.213502
  H 5.303616 -0.369309 -0.048998
  H 4.497984 -2.227464 -3.612383
  H 4.729755 -0.578629 -4.116068
  H 6.981702 -0.935613 -1.457154
 23
 78.947124
  C 1.146133 -0.080626 0.339553
  C 2.581294 0.126935 0.475414
  C 3.214311 0.806844 1.639554
  C 2.237485 1.285451 2.704146
  H 2.774237 1.803336 3.490876
  C 3.274344 -0.354955 -0.601149
  C 4.620551 -0.555140 -0.859571
  C 5.146390 -0.936112 -2.077835
  C 4.349736 -1.129115 -3.300790
  H 3.313882 -0.903324 -3.149580
  O 6.443010 -1.145754 -2.243564
  H 0.634972 -0.513972 1.184028
  H 1.380825 -0.803340 -0.833828
  H 0.597891 0.778138 -0.030077
  H 3.785301 1.656670 1.268868
  H 3.950340 0.119938 2.094088
  H 1.713223 0.459445 3.150461
  H 1.515659 1.965443 2.289537
  H 2.091419 -0.780664 -1.239056
  H 5.308417 -0.461522 -0.013175
  H 4.460005 -2.155347 -3.645074
  H 4.754989 -0.498046 -4.089883
  H 6.978026 -1.018884 -1.446706
 23
 87.459626
  C 1.134388 -0.087561 0.379844
  C 2.569751 0.112598 0.473769
  C 3.211376 0.826523 1.623305
  C 2.242873 1.321158 2.686318
  H 2.787356 1.862112 3.454075
  C 3.284262 -0.367235 -0.576864
  C 4.624610 -0.587480 -0.841516
  C 5.150426 -0.939225 -2.067810
  C 4.356414 -1.069900 -3.306203
  H 3.324987 -0.816016 -3.154305
  O 6.441312 -1.175950 -2.232468
  H 0.642487 -0.517785 1.239206
  H 1.345634 -0.878149 -0.890886
  H 0.569105 0.745345 -0.017239
  H 3.772919 1.676656 1.224699
  H 3.948550 0.160518 2.081168
  H 1.729089 0.498691 3.161365
  H 1.507556 1.989448 2.262982
  H 2.026852 -0.851089 -1.287985
  H 5.301984 -0.545048 0.010420
  H 4.436711 -2.087424 -3.682695
  H 4.786431 -0.426291 -4.071031
  H 6.973881 -1.088793 -1.426012
 23
 94.107637
  C 1.121745 -0.095156 0.422281
  C 2.557650 0.097855 0.469442
  C 3.209133 0.853472 1.602565
  C 2.248360 1.366188 2.663493
  H 2.801094 1.932378 3.408709
  C 3.298907 -0.383211 -0.551526
  C 4.628253 -0.626131 -0.823212
  C 5.153435 -0.941711 -2.057268
  C 4.362466 -0.996963 -3.308309
  H 3.336625 -0.710920 -3.151747
  O 6.435218 -1.212793 -2.222849
  H 0.651013 -0.517092 1.297037
  H 1.300530 -0.972819 -0.962346
  H 0.538145 0.708086 -0.005416
  H 3.756243 1.697532 1.173584
  H 3.952669 0.205416 2.068331
  H 1.747950 0.547941 3.171134
  H 1.498234 2.019584 2.232678
  H 1.962918 -0.944869 -1.353986
  H 5.292361 -0.646757 0.033773
  H 4.408253 -2.002776 -3.722229
  H 4.818696 -0.341861 -4.044846
  H 6.963679 -1.174513 -1.407747
 23
 97.609514
  C 1.120451 -0.122537 0.470584
  C 2.545551 0.059776 0.461617
  C 3.201147 0.893693 1.562643
  C 2.249967 1.443793 2.611600
  H 2.812496 2.052052 3.315666
  C 3.328989 -0.424003 -0.494486
  C 4.633479 -0.709366 -0.784911
  C 5.149723 -0.947673 -2.037702
  C 4.356039 -0.854557 -3.286504
  H 3.351111 -0.518233 -3.100183
  O 6.412184 -1.278686 -2.224900
  H 0.673002 -0.520049 1.367614
  H 1.259339 -1.140421 -1.044249
  H 0.514054 0.634169 -0.009476
  H 3.736800 1.721189 1.084029
  H 3.956677 0.280530 2.048814
  H 1.772346 0.645846 3.168788
  H 1.480436 2.067710 2.165758
  H 1.921498 -1.111414 -1.433205
  H 5.281037 -0.852007 0.073276
  H 4.337046 -1.829181 -3.775377
  H 4.852230 -0.170884 -3.979182
  H 6.940125 -1.334510 -1.409277
