 19
 0.000000
  C 0.986766 0.134584 0.385696
  C 2.453056 0.139075 0.396817
  C 3.224999 0.606381 1.559654
  C 2.440998 1.091305 2.767456
  H 3.132371 1.404098 3.546383
  C 3.095591 -0.325185 -0.758634
  C 4.490952 -0.399214 -0.943972
  C 5.098388 -0.850808 -2.069390
  H 4.592971 -1.204217 -2.949469
  H 6.175324 -0.866565 -2.109502
  H 0.547813 0.504042 1.304794
  H 0.620016 -0.876161 0.194850
  H 0.619900 0.732093 -0.451527
  H 3.892908 1.410089 1.224517
  H 3.893159 -0.205578 1.873543
  H 1.810115 0.305405 3.175432
  H 1.809959 1.941021 2.518785
  H 2.446736 -0.648040 -1.561884
  H 5.128714 -0.073816 -0.134110
 19
 -0.346217
  C 0.995512 0.149954 0.365553
  C 2.461365 0.152102 0.395893
  C 3.219657 0.607743 1.572188
  C 2.426586 1.075184 2.780109
  H 3.111415 1.376585 3.568037
  C 3.121516 -0.312336 -0.745638
  C 4.518457 -0.379607 -0.930812
  C 5.082376 -0.880332 -2.060821
  H 4.500550 -1.318129 -2.854765
  H 6.148693 -0.846528 -2.201613
  H 0.542886 0.528954 1.273145
  H 0.630747 -0.862838 0.176383
  H 0.641918 0.732022 -0.488795
  H 3.893037 1.413394 1.254011
  H 3.892473 -0.203099 1.879122
  H 1.795253 0.282211 3.173640
  H 1.800719 1.931423 2.539081
  H 2.501651 -0.624208 -1.576257
  H 5.169317 -0.005719 -0.153307
 19
 0.467481
  C 1.000954 0.179939 0.348192
  C 2.465190 0.169986 0.390534
  C 3.217344 0.610891 1.578709
  C 2.414857 1.040831 2.792821
  H 3.092867 1.325699 3.591614
  C 3.133464 -0.303334 -0.742895
  C 4.528371 -0.376844 -0.922826
  C 5.069624 -0.902161 -2.051628
  H 4.473484 -1.467811 -2.745043
  H 6.109199 -0.784117 -2.304474
  H 0.548639 0.646340 1.211666
  H 0.630188 -0.849699 0.268430
  H 0.654903 0.668987 -0.564322
  H 3.882019 1.432117 1.278419
  H 3.897800 -0.195382 1.869327
  H 1.786131 0.232680 3.160358
  H 1.784758 1.902858 2.571277
  H 2.531170 -0.574719 -1.599412
  H 5.182937 0.034513 -0.166949
 19
 4.317551
  C 1.007802 0.188141 0.337728
  C 2.471229 0.139086 0.401464
  C 3.218309 0.564837 1.600180
  C 2.409290 1.078215 2.780948
  H 3.082822 1.335592 3.594857
  C 3.140073 -0.361139 -0.712839
  C 4.531079 -0.417410 -0.903565
  C 5.055328 -0.858651 -2.080077
  H 4.574187 -1.629534 -2.661181
  H 6.003061 -0.508484 -2.454895
  H 0.554581 0.653642 1.210092
  H 0.612086 -0.824789 0.242469
  H 0.688053 0.702605 -0.568988
  H 3.944001 1.331675 1.300940
  H 3.825430 -0.282932 1.936812
  H 1.716839 0.323987 3.151436
  H 1.850453 1.971909 2.520026
  H 2.560225 -0.609455 -1.594243
  H 5.193853 0.008308 -0.163705
 19
 12.400511
  C 1.017867 0.201437 0.316433
  C 2.483619 0.131156 0.408313
  C 3.220784 0.582281 1.603454
  C 2.393625 1.080896 2.778539
  H 3.059646 1.339904 3.602298
  C 3.164219 -0.416271 -0.674665
  C 4.551549 -0.476366 -0.862766
  C 5.004361 -0.854464 -2.097629
  H 4.669805 -1.769580 -2.551096
  H 5.794651 -0.341183 -2.613174
  H 0.562204 0.706668 1.160494
  H 0.604615 -0.807835 0.251935
  H 0.722940 0.689333 -0.609395
  H 3.926498 1.364535 1.305750
  H 3.837171 -0.252487 1.944125
  H 1.709398 0.319465 3.133694
  H 1.830080 1.977187 2.520720
  H 2.621446 -0.620749 -1.592405
  H 5.237011 -0.066098 -0.131423
 19
 21.028253
  C 1.031533 0.145929 0.309603
  C 2.493296 0.096207 0.419516
  C 3.214440 0.540168 1.636137
  C 2.382734 1.158154 2.751036
  H 3.033942 1.424295 3.570144
  C 3.199331 -0.440566 -0.654794
  C 4.581989 -0.476962 -0.837190
  C 4.935882 -0.822879 -2.115190
  H 4.690743 -1.788735 -2.513359
  H 5.625418 -0.222993 -2.710732
  H 0.558419 0.552759 1.198732
  H 0.631906 -0.859666 0.121375
  H 0.748549 0.741207 -0.538912
  H 3.973461 1.239654 1.321593
  H 3.768521 -0.322203 2.051165
  H 1.644134 0.443028 3.132942
  H 1.872663 2.048217 2.431336
  H 2.711402 -0.624893 -1.601168
  H 5.290413 -0.067572 -0.138877
 19
 35.759732
  C 1.062485 0.082774 0.310344
  C 2.508914 0.014049 0.449123
  C 3.223584 0.519178 1.638239
  C 2.355910 1.188742 2.735435
  H 2.982509 1.497594 3.567399
  C 3.266870 -0.550145 -0.626466
  C 4.642856 -0.546952 -0.776108
  C 4.822725 -0.700857 -2.123768
  H 4.729193 -1.694063 -2.572721
  H 5.307276 0.086063 -2.768490
  H 0.591197 0.569461 1.115743
  H 0.635937 -0.909509 0.252150
  H 0.812849 0.610790 -0.620979
  H 3.972997 1.242946 1.279405
  H 3.780898 -0.281375 2.071455
  H 1.606742 0.518408 3.153856
  H 1.848377 2.067725 2.332811
  H 2.824141 -0.740299 -1.586783
  H 5.393109 -0.238433 -0.063095
 19
 48.829810
  C 1.180056 0.032541 0.191503
  C 2.636212 0.059472 0.453999
  C 3.245848 0.602496 1.706846
  C 2.264916 1.163816 2.728327
  H 2.819607 1.521458 3.591679
  C 3.519161 -0.427607 -0.482100
  C 4.858141 -0.536566 -0.708742
  C 4.494273 -0.701787 -2.095431
  H 4.294007 -1.690335 -2.491863
  H 4.752989 0.060901 -2.825001
  H 0.616231 0.496859 0.990475
  H 0.836581 -0.997949 0.084277
  H 0.939618 0.544680 -0.741059
  H 3.965190 1.380438 1.434553
  H 3.829184 -0.195038 2.178024
  H 1.569363 0.404312 3.072967
  H 1.705680 2.003484 2.322902
  H 3.073655 -0.636049 -1.546902
  H 5.769275 -0.375675 -0.179696
 19
 41.780531
  C 1.281985 0.017393 0.159344
  C 2.722264 0.094461 0.501597
  C 3.249467 0.640535 1.796841
  C 2.189905 1.168851 2.754136
  H 2.677984 1.529606 3.652725
  C 3.685625 -0.334183 -0.354069
  C 4.948001 -0.516756 -0.733873
  C 4.253533 -0.691065 -2.044288
  H 4.169022 -1.714141 -2.414230
  H 4.430789 0.071809 -2.798246
  H 0.661389 0.455569 0.931002
  H 0.979160 -1.022343 0.031484
  H 1.072659 0.531764 -0.782861
  H 3.963050 1.439547 1.569797
  H 3.823899 -0.143973 2.300885
  H 1.489918 0.386397 3.047489
  H 1.637740 1.999852 2.319291
  H 3.147252 -0.581477 -1.617930
  H 5.944562 -0.388179 -0.397883
 19
 37.510839
  C 1.318999 0.024416 0.156108
  C 2.747520 0.137460 0.532495
  C 3.237342 0.691022 1.854957
  C 2.126361 1.130037 2.797562
  H 2.580488 1.493923 3.715493
  C 3.759040 -0.244491 -0.256657
  C 4.922476 -0.505547 -0.809397
  C 4.170446 -0.735445 -2.103552
  H 4.175160 -1.789503 -2.379125
  H 4.485033 -0.069622 -2.902723
  H 0.669963 0.445759 0.912891
  H 1.046524 -1.023024 0.014049
  H 1.130136 0.538171 -0.788097
  H 3.898990 1.539156 1.654390
  H 3.847261 -0.070819 2.348329
  H 1.470635 0.302349 3.056774
  H 1.537252 1.939359 2.374097
  H 3.103113 -0.527534 -1.850933
  H 5.957364 -0.366376 -0.609175
 19
 29.831808
  C 1.341534 0.156587 0.159060
  C 2.766089 0.262456 0.547578
  C 3.220274 0.703640 1.919235
  C 2.095791 1.037236 2.888441
  H 2.538343 1.315910 3.841532
  C 3.759218 -0.064776 -0.277072
  C 4.837609 -0.294297 -0.972304
  C 4.233469 -0.993669 -2.171221
  H 4.495238 -2.051095 -2.211260
  H 4.492621 -0.470321 -3.085032
  H 0.682616 0.511557 0.942804
  H 1.101868 -0.885448 -0.057916
  H 1.144228 0.727677 -0.750132
  H 3.860506 1.579163 1.790041
  H 3.848145 -0.080372 2.354274
  H 1.450674 0.179904 3.061506
  H 1.497711 1.876131 2.540988
  H 3.147269 -0.931441 -2.020716
  H 5.838561 0.085009 -0.904754
 19
 16.894521
  C 1.274753 0.322212 0.187219
  C 2.709374 0.333962 0.550839
  C 3.191473 0.644503 1.941472
  C 2.104395 0.946289 2.960449
  H 2.578364 1.148581 3.917970
  C 3.646767 0.034654 -0.347493
  C 4.676934 -0.157993 -1.121672
  C 4.378425 -1.137215 -2.217784
  H 4.796867 -2.118704 -1.987759
  H 4.763354 -0.773179 -3.165974
  H 0.644066 0.632163 1.011747
  H 0.984267 -0.682227 -0.122535
  H 1.097628 0.974603 -0.669493
  H 3.873566 1.496826 1.872770
  H 3.795396 -0.200481 2.288103
  H 1.433515 0.101210 3.092984
  H 1.527415 1.826698 2.687671
  H 3.290315 -1.227131 -2.250347
  H 5.576043 0.443108 -1.138163
 19
 10.828366
  C 1.200144 0.374870 0.241562
  C 2.647495 0.355963 0.549095
  C 3.182715 0.608572 1.924966
  C 2.150710 0.907876 2.997681
  H 2.667386 1.076432 3.939507
  C 3.526947 0.083399 -0.415288
  C 4.498633 -0.072152 -1.261253
  C 4.512843 -1.198828 -2.239195
  H 4.984411 -2.072109 -1.785550
  H 5.054314 -0.923963 -3.138047
  H 0.604147 0.641172 1.105576
  H 0.879652 -0.601194 -0.123699
  H 1.008912 1.078955 -0.569804
  H 3.898242 1.435033 1.866803
  H 3.771704 -0.269723 2.211748
  H 1.464265 0.076422 3.135651
  H 1.583349 1.807923 2.772306
  H 3.480813 -1.455785 -2.468515
  H 5.261236 0.695025 -1.367888
 19
 9.664385
  C 1.173706 0.373508 0.274690
  C 2.625259 0.353470 0.562521
  C 3.180396 0.595938 1.926465
  C 2.176537 0.926421 3.015332
  H 2.712506 1.128825 3.939264
  C 3.481075 0.093346 -0.431952
  C 4.385814 -0.048899 -1.344682
  C 4.578832 -1.227574 -2.237777
  H 4.922086 -2.076674 -1.646422
  H 5.303188 -1.019522 -3.016199
  H 0.584835 0.564461 1.163061
  H 0.855218 -0.568922 -0.171257
  H 0.971188 1.140639 -0.474877
  H 3.928310 1.393857 1.865489
  H 3.745696 -0.303030 2.200959
  H 1.495424 0.098495 3.195206
  H 1.599002 1.815784 2.773245
  H 3.622266 -1.495418 -2.676379
  H 5.036581 0.803182 -1.541035
 19
 9.112291
  C 1.176593 0.374408 0.270743
  C 2.626098 0.355929 0.566931
  C 3.172197 0.560614 1.936163
  C 2.178280 0.945022 3.015268
  H 2.709388 1.096906 3.951621
  C 3.490657 0.147490 -0.433911
  C 4.341841 -0.014556 -1.389462
  C 4.581575 -1.231608 -2.221567
  H 5.073633 -1.980348 -1.598779
  H 5.222494 -1.005424 -3.065083
  H 0.577576 0.482976 1.166681
  H 0.875062 -0.527438 -0.262224
  H 0.968850 1.202362 -0.411015
  H 3.978638 1.299629 1.894573
  H 3.670895 -0.377724 2.212646
  H 1.435603 0.166747 3.173825
  H 1.667768 1.874884 2.772125
  H 3.645450 -1.653012 -2.577356
  H 4.985318 0.831030 -1.625523
