 29
 0.000000
  C 0.971117 0.140459 0.401916
  C 2.449616 0.138873 0.397136
  C 3.235187 0.608116 1.564143
  C 2.458850 1.097975 2.783315
  C 3.410466 1.542738 3.889512
  C 3.059756 -0.326450 -0.761064
  C 4.437323 -0.411908 -0.974495
  C 5.117690 -0.862534 -2.098154
  C 4.625328 -1.385184 -3.401597
  C 3.135772 -1.502923 -3.696099
  H 2.981587 -1.900426 -4.687478
  O 6.440202 -0.856731 -2.083846
  H 0.525682 0.509479 1.320237
  H 0.602687 -0.872331 0.233260
  H 0.602215 0.754619 -0.420681
  H 3.891169 1.420124 1.230489
  H 3.891523 -0.208670 1.885164
  H 1.821317 0.301186 3.170973
  H 1.821023 1.941236 2.511840
  H 4.046415 0.720976 4.211776
  H 2.847004 1.889414 4.752426
  H 4.046099 2.359163 3.553359
  H 2.399666 -0.643550 -1.550047
  H 5.055160 -0.080054 -0.148095
  H 5.082577 -2.373237 -3.526550
  H 5.082994 -0.757508 -4.174599
  H 2.659504 -0.525082 -3.645203
  H 2.659090 -2.174487 -2.983788
  H 6.813132 -0.521748 -1.246997
 29
 5.909870
  C 0.911185 0.135254 0.388253
  C 2.352364 0.134847 0.387100
  C 3.167461 0.599233 1.542216
  C 2.448502 1.102606 2.794269
  C 3.465650 1.526591 3.850019
  C 3.006921 -0.331513 -0.773015
  C 4.406989 -0.406184 -0.960104
  C 5.117585 -0.852026 -2.072678
  C 4.653360 -1.376803 -3.381374
  C 3.171914 -1.503014 -3.695074
  H 3.069674 -1.906812 -4.702529
  O 6.430377 -0.835603 -2.033134
  H 0.768824 0.526521 1.361435
  H 0.473066 -0.865835 0.257531
  H 0.472950 0.767143 -0.399038
  H 3.826564 1.401887 1.189280
  H 3.826436 -0.224504 1.843045
  H 1.818141 0.317315 3.217832
  H 1.818488 1.962946 2.556435
  H 4.099311 0.690569 4.137982
  H 2.958066 1.885205 4.742050
  H 4.099892 2.328975 3.479535
  H 2.353837 -0.652124 -1.570255
  H 5.029835 -0.073817 -0.133492
  H 5.130053 -2.356636 -3.494334
  H 5.129636 -0.746203 -4.140024
  H 2.676689 -0.537504 -3.674418
  H 2.677306 -2.187393 -3.013193
  H 6.811424 -0.502236 -1.199042
 29
 20.321801
  C 0.879225 0.131773 0.374255
  C 2.299582 0.135330 0.385542
  C 3.124757 0.596682 1.536119
  C 2.437700 1.105712 2.802831
  C 3.486480 1.517608 3.832484
  C 2.989765 -0.331810 -0.776559
  C 4.393219 -0.399898 -0.948122
  C 5.119439 -0.847430 -2.064649
  C 4.667556 -1.375492 -3.377238
  C 3.191547 -1.508406 -3.701528
  H 3.101541 -1.916534 -4.716550
  O 6.426005 -0.826732 -2.017526
  H 0.965616 0.518229 1.337111
  H 0.424762 -0.838496 0.287753
  H 0.426093 0.773503 -0.359275
  H 3.783413 1.391136 1.175504
  H 3.782092 -0.227531 1.825199
  H 1.812471 0.328302 3.247327
  H 1.814398 1.975920 2.586198
  H 4.117466 0.674818 4.103988
  H 3.005496 1.880957 4.736501
  H 4.119512 2.312933 3.446632
  H 2.344931 -0.654605 -1.579470
  H 5.008414 -0.066405 -0.120606
  H 5.150042 -2.352737 -3.486360
  H 5.147365 -0.744169 -4.132942
  H 2.692255 -0.546174 -3.691577
  H 2.695205 -2.197578 -3.027741
  H 6.799874 -0.491407 -1.180089
 29
 38.800515
  C 0.861545 0.126664 0.358673
  C 2.279207 0.136336 0.386233
  C 3.120292 0.595733 1.533659
  C 2.438823 1.104912 2.801599
  C 3.493767 1.514991 3.828740
  C 3.002311 -0.333599 -0.783011
  C 4.381028 -0.397796 -0.945126
  C 5.106035 -0.839419 -2.046064
  C 4.663185 -1.373666 -3.371583
  C 3.189836 -1.515164 -3.714413
  H 3.110246 -1.920473 -4.720561
  O 6.423726 -0.812953 -1.986265
  H 1.136487 0.506977 1.307655
  H 0.393950 -0.848431 0.301697
  H 0.395749 0.793263 -0.356473
  H 3.778455 1.386036 1.172033
  H 3.776554 -0.227054 1.818126
  H 1.812727 0.327724 3.248904
  H 1.815359 1.977456 2.587640
  H 4.125217 0.669786 4.098176
  H 3.014982 1.879112 4.735146
  H 4.127841 2.310500 3.440419
  H 2.364074 -0.657564 -1.588942
  H 4.987888 -0.063181 -0.115997
  H 5.152513 -2.350797 -3.475433
  H 5.148769 -0.739006 -4.124225
  H 2.686511 -0.553685 -3.709979
  H 2.690586 -2.207266 -3.044149
  H 6.783258 -0.476675 -1.148606
 29
 57.735434
  C 0.851993 0.108491 0.313166
  C 2.274614 0.128917 0.368070
  C 3.126217 0.590308 1.520478
  C 2.437893 1.101809 2.793995
  C 3.489961 1.514479 3.827692
  C 3.013291 -0.335062 -0.786114
  C 4.392863 -0.394540 -0.936804
  C 5.118966 -0.837641 -2.041887
  C 4.656060 -1.366933 -3.355003
  C 3.173539 -1.494101 -3.661577
  H 3.066568 -1.895773 -4.658382
  O 6.440443 -0.815376 -1.992696
  H 1.261337 0.471326 1.219264
  H 0.383044 -0.860525 0.273497
  H 0.384925 0.783063 -0.385073
  H 3.785333 1.381974 1.157563
  H 3.783449 -0.234386 1.805177
  H 1.808217 0.322144 3.238198
  H 1.810883 1.974006 2.575905
  H 4.121946 0.669840 4.099962
  H 3.007819 1.878243 4.733047
  H 4.124703 2.311415 3.441873
  H 2.379468 -0.662034 -1.599469
  H 4.999816 -0.058128 -0.103383
  H 5.134948 -2.348940 -3.469461
  H 5.130942 -0.735932 -4.118495
  H 2.678476 -0.527953 -3.644475
  H 2.682829 -2.180803 -2.978826
  H 6.808485 -0.482551 -1.163185
 29
 73.954916
  C 0.806581 0.118931 0.337357
  C 2.251957 0.139527 0.396071
  C 3.129414 0.595243 1.534168
  C 2.452919 1.108794 2.810671
  C 3.509474 1.517606 3.835629
  C 2.988957 -0.333769 -0.779715
  C 4.366404 -0.395480 -0.937737
  C 5.100891 -0.835834 -2.037876
  C 4.671795 -1.371307 -3.366524
  C 3.202785 -1.521236 -3.727749
  H 3.140885 -1.928809 -4.739412
  O 6.410662 -0.805341 -1.969868
  H 1.342171 0.466666 1.208545
  H 0.332589 -0.849867 0.312980
  H 0.334793 0.805981 -0.347597
  H 3.787471 1.383742 1.160000
  H 3.784565 -0.235361 1.809455
  H 1.822902 0.333366 3.255699
  H 1.826455 1.979142 2.595459
  H 4.139898 0.672278 4.104202
  H 3.034870 1.882713 4.743043
  H 4.143643 2.311625 3.446549
  H 2.349839 -0.655134 -1.578903
  H 4.975127 -0.059693 -0.106211
  H 5.165952 -2.346177 -3.465548
  H 5.160920 -0.733954 -4.114061
  H 2.692451 -0.564909 -3.730244
  H 2.697595 -2.214995 -3.065619
  H 6.774022 -0.465143 -1.122715
 29
 87.096511
  C 0.803099 0.100897 0.295432
  C 2.267493 0.121870 0.379282
  C 3.162569 0.589256 1.530067
  C 2.465915 1.112448 2.800818
  C 3.506084 1.523932 3.841983
  C 2.983607 -0.349202 -0.771932
  C 4.369975 -0.399517 -0.929980
  C 5.097972 -0.829313 -2.027752
  C 4.660452 -1.360569 -3.352970
  C 3.189730 -1.509515 -3.700345
  H 3.118162 -1.913546 -4.712110
  O 6.418754 -0.798928 -1.967213
  H 1.432062 0.427788 1.132791
  H 0.327839 -0.864930 0.256555
  H 0.318264 0.811630 -0.351660
  H 3.825727 1.381157 1.163724
  H 3.807966 -0.247536 1.814879
  H 1.824592 0.337903 3.235285
  H 1.841523 1.981434 2.569121
  H 4.130966 0.678675 4.123593
  H 3.017513 1.893294 4.740764
  H 4.147777 2.315404 3.460060
  H 2.340407 -0.672960 -1.569648
  H 4.977305 -0.062634 -0.099499
  H 5.157619 -2.332404 -3.461639
  H 5.145736 -0.723207 -4.102312
  H 2.680301 -0.554109 -3.695326
  H 2.692156 -2.205447 -3.036466
  H 6.780581 -0.464771 -1.130556
 29
 93.023725
  C 0.800240 0.086907 0.251373
  C 2.310067 0.098526 0.372340
  C 3.207478 0.590571 1.547594
  C 2.471843 1.125619 2.801080
  C 3.485226 1.541516 3.869960
  C 2.990010 -0.377329 -0.759334
  C 4.385412 -0.413451 -0.931051
  C 5.096648 -0.828032 -2.034234
  C 4.650957 -1.356243 -3.366793
  C 3.176977 -1.509209 -3.699895
  H 3.096025 -1.906006 -4.711229
  O 6.420031 -0.796497 -1.990023
  H 1.532002 0.392278 1.090702
  H 0.315643 -0.872885 0.198434
  H 0.293657 0.837788 -0.331502
  H 3.875170 1.379201 1.192417
  H 3.830109 -0.253306 1.848132
  H 1.815859 0.349926 3.219258
  H 1.854309 1.996217 2.544080
  H 4.101610 0.695346 4.172600
  H 2.973054 1.917066 4.754731
  H 4.139561 2.330419 3.500539
  H 2.348290 -0.708332 -1.555985
  H 4.996161 -0.073677 -0.104198
  H 5.151893 -2.328104 -3.486644
  H 5.126559 -0.708389 -4.116448
  H 2.664954 -0.557011 -3.681898
  H 2.690648 -2.210768 -3.036611
  H 6.785947 -0.464486 -1.150717
 29
 95.813333
  C 0.806518 0.074134 0.212030
  C 2.351331 0.079276 0.393349
  C 3.235868 0.589444 1.572809
  C 2.473996 1.135228 2.791462
  C 3.455729 1.561277 3.872755
  C 3.000675 -0.414637 -0.747724
  C 4.396086 -0.435991 -0.933217
  C 5.094322 -0.833495 -2.046614
  C 4.644384 -1.346693 -3.375391
  C 3.166119 -1.498755 -3.695948
  H 3.075870 -1.882371 -4.706856
  O 6.425708 -0.806236 -2.018927
  H 1.604482 0.357987 1.083274
  H 0.364669 -0.902400 0.110037
  H 0.283813 0.891954 -0.241642
  H 3.906251 1.368784 1.213119
  H 3.842888 -0.258439 1.883364
  H 1.812898 0.372280 3.207434
  H 1.869811 2.000053 2.514909
  H 4.062255 0.721377 4.198879
  H 2.924234 1.946173 4.735967
  H 4.117395 2.342549 3.510024
  H 2.372155 -0.746827 -1.551538
  H 5.005519 -0.101921 -0.100808
  H 5.141844 -2.314691 -3.504443
  H 5.107605 -0.686343 -4.118950
  H 2.649749 -0.541631 -3.661691
  H 2.685914 -2.214609 -3.031263
  H 6.793968 -0.478376 -1.177307
 29
 99.547334
  C 0.790182 0.063031 0.167383
  C 2.335390 0.065552 0.403933
  C 3.235381 0.583837 1.578910
  C 2.484764 1.141769 2.795849
  C 3.474080 1.574275 3.865648
  C 2.993038 -0.431771 -0.740152
  C 4.388664 -0.441390 -0.922485
  C 5.092343 -0.826849 -2.033984
  C 4.648303 -1.338649 -3.373120
  C 3.170670 -1.499309 -3.701788
  H 3.088330 -1.880613 -4.721614
  O 6.424222 -0.797896 -1.997819
  H 1.621179 0.321752 1.078840
  H 0.378750 -0.916041 -0.007124
  H 0.252754 0.931740 -0.146101
  H 3.908699 1.361826 1.204941
  H 3.841262 -0.268982 1.894812
  H 1.824563 0.385725 3.221688
  H 1.882777 2.005143 2.514987
  H 4.079403 0.736329 4.194002
  H 2.950102 1.968507 4.728661
  H 4.134537 2.348890 3.492286
  H 2.363415 -0.759179 -1.550384
  H 4.999139 -0.114968 -0.082892
  H 5.150278 -2.303161 -3.504625
  H 5.111430 -0.673184 -4.109809
  H 2.649332 -0.548297 -3.664264
  H 2.691555 -2.221040 -3.046661
  H 6.786043 -0.472138 -1.160017
 29
 104.438464
  C 0.778457 0.069639 0.132748
  C 2.312829 0.046520 0.405181
  C 3.227014 0.574180 1.580037
  C 2.488023 1.147816 2.799022
  C 3.492527 1.579909 3.861861
  C 2.991286 -0.443524 -0.746365
  C 4.384927 -0.448185 -0.921214
  C 5.095063 -0.823660 -2.033374
  C 4.658312 -1.332305 -3.371670
  C 3.183429 -1.509010 -3.700396
  H 3.104959 -1.887704 -4.718883
  O 6.427681 -0.778437 -1.997349
  H 1.656278 0.298461 1.092437
  H 0.366527 -0.884236 -0.118232
  H 0.218425 0.968304 -0.037501
  H 3.900449 1.342914 1.194293
  H 3.822898 -0.282826 1.894261
  H 1.821799 0.401031 3.235652
  H 1.891859 2.016815 2.515250
  H 4.093501 0.734795 4.193002
  H 2.976876 1.988069 4.727945
  H 4.161080 2.347946 3.477382
  H 2.365168 -0.789147 -1.542994
  H 4.991291 -0.110016 -0.089404
  H 5.169194 -2.291115 -3.508795
  H 5.115158 -0.658477 -4.103310
  H 2.651285 -0.561437 -3.657887
  H 2.711723 -2.239916 -3.047493
  H 6.786606 -0.458545 -1.152946
 29
 108.800167
  C 0.777718 0.052682 0.099264
  C 2.281822 0.007569 0.402711
  C 3.211592 0.563167 1.586546
  C 2.492994 1.158924 2.808374
  C 3.519306 1.600224 3.846942
  C 2.980792 -0.459399 -0.752543
  C 4.368889 -0.464139 -0.912116
  C 5.091636 -0.825247 -2.024648
  C 4.668181 -1.320636 -3.371033
  C 3.199848 -1.497080 -3.709961
  H 3.129139 -1.863896 -4.727890
  O 6.426216 -0.778222 -1.975251
  H 1.706656 0.280893 1.130127
  H 0.358509 -0.872188 -0.229870
  H 0.195845 0.954675 0.058614
  H 3.880814 1.325011 1.178200
  H 3.804363 -0.297768 1.901890
  H 1.829872 0.424856 3.269999
  H 1.897530 2.027571 2.520294
  H 4.120406 0.755188 4.181690
  H 3.020484 2.026105 4.715851
  H 4.186600 2.357702 3.438160
  H 2.353670 -0.797126 -1.552691
  H 4.970581 -0.142486 -0.071797
  H 5.183840 -2.273820 -3.514056
  H 5.126056 -0.639409 -4.092255
  H 2.664999 -0.553595 -3.661847
  H 2.728525 -2.233600 -3.067309
  H 6.775469 -0.470349 -1.120921
 29
 108.272094
  C 0.774950 0.018066 0.073549
  C 2.223340 0.015223 0.376025
  C 3.165171 0.610178 1.581436
  C 2.489413 1.163755 2.848123
  C 3.561013 1.631805 3.832717
  C 2.955254 -0.451974 -0.791683
  C 4.347450 -0.483202 -0.918448
  C 5.093068 -0.847702 -2.011371
  C 4.691541 -1.327679 -3.367486
  C 3.227890 -1.468703 -3.740519
  H 3.170464 -1.831829 -4.761508
  O 6.429360 -0.840083 -1.923869
  H 1.830256 0.228190 1.222035
  H 0.364537 -0.867714 -0.360595
  H 0.147944 0.875971 0.202029
  H 3.772653 1.401106 1.144951
  H 3.794123 -0.236537 1.843856
  H 1.880054 0.401821 3.339408
  H 1.848902 2.010323 2.602095
  H 4.207622 0.806165 4.122382
  H 3.098675 2.030998 4.731870
  H 4.177084 2.416208 3.397724
  H 2.336112 -0.755872 -1.598331
  H 4.935570 -0.193371 -0.047906
  H 5.185662 -2.292235 -3.503486
  H 5.181282 -0.651699 -4.075027
  H 2.715929 -0.514458 -3.701465
  H 2.725802 -2.193679 -3.111396
  H 6.761698 -0.550815 -1.057665
 29
 103.774915
  C 0.764485 0.031859 -0.020324
  C 2.193541 0.065559 0.355915
  C 3.149341 0.658203 1.603492
  C 2.499309 1.168871 2.902886
  C 3.597685 1.645409 3.857276
  C 2.946876 -0.391861 -0.818955
  C 4.335792 -0.470716 -0.918308
  C 5.088041 -0.859106 -2.004870
  C 4.705605 -1.359366 -3.363914
  C 3.237208 -1.481109 -3.754795
  H 3.187891 -1.866341 -4.773829
  O 6.425161 -0.880540 -1.895061
  H 1.905666 0.195478 1.275959
  H 0.462936 -0.827425 -0.579248
  H 0.045596 0.780728 0.248157
  H 3.700720 1.490872 1.155603
  H 3.818052 -0.166518 1.820713
  H 1.976729 0.350701 3.400853
  H 1.791427 1.979174 2.711927
  H 4.288961 0.834083 4.084040
  H 3.160719 1.991722 4.792240
  H 4.165693 2.469965 3.427569
  H 2.348885 -0.682984 -1.658650
  H 4.924503 -0.134864 -0.072328
  H 5.193274 -2.332707 -3.484950
  H 5.206783 -0.691705 -4.064294
  H 2.744161 -0.508549 -3.747933
  H 2.704923 -2.185520 -3.114026
  H 6.742226 -0.621111 -1.012023
