 23
 0.000000
  H 1.459238 0.163449 0.458866
  C 2.538681 0.149303 0.422913
  C 3.282589 0.621603 1.597355
  C 2.398501 1.083618 2.747952
  H 3.006088 1.419134 3.582294
  C 3.106160 -0.319767 -0.745114
  C 4.481427 -0.414510 -0.981979
  C 5.136545 -0.873308 -2.125405
  C 4.604265 -1.389961 -3.413371
  C 3.109567 -1.492377 -3.670250
  H 2.955584 -1.892470 -4.667580
  O 6.451280 -0.878093 -2.137578
  H 3.944625 1.442764 1.297561
  H 3.945324 -0.178073 1.949001
  H 1.759352 0.274406 3.093809
  H 1.758722 1.906684 2.437900
  H 2.425738 -0.630454 -1.518229
  H 5.128589 -0.090557 -0.175250
  H 5.057368 -2.379050 -3.548011
  H 5.058171 -0.768802 -4.194321
  H 2.631920 -0.517169 -3.626832
  H 2.631137 -2.166757 -2.964966
  H 6.871495 -0.550431 -1.319595
 23
 0.122438
  H 1.470362 0.188922 0.490457
  C 2.547958 0.195452 0.402014
  C 3.297880 0.593366 1.600594
  C 2.408445 1.017362 2.761443
  H 3.012233 1.297855 3.619658
  C 3.080572 -0.195275 -0.807475
  C 4.455114 -0.271163 -1.053062
  C 5.129988 -0.831917 -2.138564
  C 4.606597 -1.441972 -3.387842
  C 3.113097 -1.529193 -3.651891
  H 2.964294 -2.010896 -4.614891
  O 6.442673 -0.867140 -2.117010
  H 3.988178 1.407105 1.350328
  H 3.936138 -0.239383 1.921636
  H 1.749389 0.207272 3.062427
  H 1.793602 1.870594 2.486833
  H 2.386683 -0.474319 -1.579713
  H 5.097285 0.102777 -0.263690
  H 5.041684 -2.446484 -3.438226
  H 5.086907 -0.896778 -4.208531
  H 2.657875 -0.544535 -3.706139
  H 2.609164 -2.134056 -2.903033
  H 6.859072 -0.477502 -1.324082
 23
 1.253607
  H 1.493004 0.063442 0.504334
  C 2.560428 0.184146 0.384202
  C 3.308278 0.534530 1.598676
  C 2.411506 0.967122 2.752052
  H 3.009646 1.209136 3.625869
  C 3.079396 -0.056498 -0.866401
  C 4.456730 -0.143658 -1.110809
  C 5.133453 -0.764266 -2.159068
  C 4.603978 -1.468258 -3.355710
  C 3.108771 -1.572626 -3.596310
  H 2.946883 -2.154893 -4.500479
  O 6.446347 -0.806504 -2.131856
  H 4.040788 1.319261 1.379948
  H 3.893020 -0.337630 1.920569
  H 1.717378 0.176492 3.025511
  H 1.834765 1.848441 2.481434
  H 2.381458 -0.248535 -1.662403
  H 5.098891 0.257108 -0.334188
  H 5.039031 -2.474005 -3.331484
  H 5.076784 -0.987683 -4.220123
  H 2.659559 -0.596589 -3.753626
  H 2.608169 -2.086357 -2.780578
  H 6.864765 -0.346584 -1.379835
 23
 3.480102
  H 1.557534 -0.163089 0.511099
  C 2.601098 0.096073 0.383092
  C 3.319531 0.463802 1.611924
  C 2.384477 0.965510 2.710524
  H 2.955630 1.232159 3.596213
  C 3.102007 0.035853 -0.893020
  C 4.482905 -0.062354 -1.139443
  C 5.145129 -0.696951 -2.185591
  C 4.598035 -1.446135 -3.346914
  C 3.099499 -1.614123 -3.521523
  H 2.923868 -2.226703 -4.401202
  O 6.459625 -0.719427 -2.190091
  H 4.093324 1.207286 1.404418
  H 3.835412 -0.427018 1.994472
  H 1.660947 0.203943 2.988794
  H 1.842368 1.847705 2.376588
  H 2.403215 -0.084071 -1.701304
  H 5.135083 0.323750 -0.364535
  H 5.075378 -2.432182 -3.317929
  H 5.015062 -0.966473 -4.240253
  H 2.607062 -0.661645 -3.687755
  H 2.653563 -2.121352 -2.669712
  H 6.889784 -0.249290 -1.451015
 23
 9.027617
  H 1.660223 -0.247967 0.422970
  C 2.666128 0.139047 0.307321
  C 3.341139 0.490233 1.565459
  C 2.341868 0.800414 2.682823
  H 2.875635 1.039770 3.603144
  C 3.143150 0.253662 -0.973801
  C 4.521184 0.052148 -1.183278
  C 5.162672 -0.660833 -2.186123
  C 4.583122 -1.491825 -3.279166
  C 3.079216 -1.651290 -3.397382
  H 2.868797 -2.309859 -4.236135
  O 6.476551 -0.724519 -2.192826
  H 4.014447 1.330133 1.416637
  H 3.951184 -0.356737 1.898153
  H 1.690888 -0.050439 2.878315
  H 1.726292 1.653951 2.417722
  H 2.448615 0.224185 -1.796411
  H 5.179060 0.520857 -0.459105
  H 5.054290 -2.480269 -3.185219
  H 4.975574 -1.083227 -4.217362
  H 2.590090 -0.705105 -3.602052
  H 2.657104 -2.101782 -2.506440
  H 6.926103 -0.167412 -1.528374
 23
 16.043362
  H 1.790338 -0.477343 0.397047
  C 2.733439 0.063873 0.285702
  C 3.355466 0.418915 1.566832
  C 2.293909 0.761119 2.606336
  H 2.778593 1.070425 3.532195
  C 3.172129 0.347164 -0.981916
  C 4.554754 0.124367 -1.189626
  C 5.173296 -0.583845 -2.204591
  C 4.576546 -1.484388 -3.233359
  C 3.067321 -1.687696 -3.283845
  H 2.840942 -2.383287 -4.088591
  O 6.492327 -0.607781 -2.270502
  H 4.044605 1.257983 1.440815
  H 3.936161 -0.433242 1.952130
  H 1.662248 -0.093037 2.822859
  H 1.667046 1.581525 2.257089
  H 2.478266 0.350111 -1.804500
  H 5.226434 0.615848 -0.498427
  H 5.073140 -2.453717 -3.107369
  H 4.925257 -1.115711 -4.210118
  H 2.544329 -0.767048 -3.501979
  H 2.691536 -2.115248 -2.358368
  H 6.954331 0.037441 -1.700780
 23
 29.539926
  H 2.024069 -0.565760 0.226223
  C 2.871291 0.095355 0.135553
  C 3.430183 0.493082 1.450336
  C 2.309321 0.541187 2.494095
  H 2.719126 0.853953 3.450184
  C 3.136819 0.606306 -1.103150
  C 4.533136 0.291986 -1.220424
  C 5.139496 -0.535697 -2.144236
  C 4.532456 -1.495845 -3.112571
  C 3.030607 -1.736513 -3.094652
  H 2.790950 -2.449290 -3.874360
  O 6.464874 -0.542912 -2.243650
  H 3.907062 1.468968 1.373781
  H 4.178402 -0.231901 1.803353
  H 1.848535 -0.436475 2.623575
  H 1.544314 1.251169 2.207633
  H 2.451248 0.571611 -1.925919
  H 5.201378 0.789010 -0.533588
  H 5.054362 -2.446818 -2.947549
  H 4.840497 -1.174956 -4.118175
  H 2.471657 -0.833799 -3.307153
  H 2.709400 -2.155990 -2.153136
  H 6.935236 -0.016009 -1.574506
 23
 39.950478
  H 2.329917 -0.725422 0.028864
  C 3.020496 0.119256 -0.032047
  C 3.528304 0.514482 1.321355
  C 2.413011 0.328172 2.352044
  H 2.767026 0.644778 3.328842
  C 3.057907 0.815131 -1.234382
  C 4.439680 0.380791 -1.171578
  C 5.069242 -0.553724 -1.999397
  C 4.469302 -1.561211 -2.917408
  C 2.958456 -1.713094 -2.987707
  H 2.727124 -2.510302 -3.690850
  O 6.388095 -0.608817 -2.023814
  H 3.847477 1.558201 1.315883
  H 4.372189 -0.109502 1.619804
  H 2.109877 -0.713176 2.422770
  H 1.543079 0.928413 2.095431
  H 2.369948 0.832614 -2.051936
  H 5.100634 0.970670 -0.545861
  H 4.919726 -2.520655 -2.640561
  H 4.859656 -1.345602 -3.917506
  H 2.478534 -0.812894 -3.354294
  H 2.536061 -1.989469 -2.026917
  H 6.848042 0.028078 -1.446115
 23
 36.985283
  H 2.595765 -0.776695 -0.129756
  C 3.186812 0.139129 -0.120776
  C 3.537684 0.568343 1.287776
  C 2.408703 0.196464 2.247755
  H 2.651985 0.538973 3.247345
  C 3.111401 0.958711 -1.274196
  C 4.453754 0.383218 -1.125589
  C 5.058705 -0.609016 -1.942598
  C 4.406975 -1.608573 -2.827259
  C 2.891558 -1.714925 -2.878808
  H 2.628896 -2.506405 -3.575515
  O 6.357443 -0.704743 -1.974705
  H 3.696940 1.644393 1.316297
  H 4.447227 0.074310 1.618358
  H 2.264154 -0.880152 2.283753
  H 1.472295 0.664933 1.947696
  H 2.442220 1.002604 -2.100825
  H 5.156757 1.001670 -0.569442
  H 4.833335 -2.578716 -2.550425
  H 4.791142 -1.416240 -3.836498
  H 2.432578 -0.799596 -3.241231
  H 2.468380 -1.975302 -1.916044
  H 6.857440 -0.069396 -1.422727
 23
 36.538265
  H 2.641168 -0.686924 -0.227629
  C 3.250682 0.209649 -0.164265
  C 3.475678 0.640448 1.276018
  C 2.361089 0.112889 2.173527
  H 2.510848 0.463162 3.192391
  C 3.250597 1.063499 -1.300929
  C 4.533666 0.351100 -1.080854
  C 5.084440 -0.642967 -1.942722
  C 4.372686 -1.608694 -2.812069
  C 2.863242 -1.769173 -2.714461
  H 2.544480 -2.481111 -3.471963
  O 6.371580 -0.736093 -2.061969
  H 3.502337 1.728806 1.331455
  H 4.430494 0.260052 1.636430
  H 2.351573 -0.975481 2.186489
  H 1.388815 0.466742 1.834769
  H 2.624817 1.215220 -2.150127
  H 5.279277 0.964546 -0.576859
  H 4.853776 -2.579120 -2.650270
  H 4.644585 -1.338376 -3.839318
  H 2.339363 -0.838556 -2.898425
  H 2.564071 -2.166139 -1.750428
  H 6.912885 -0.120492 -1.526205
 23
 34.714825
  H 2.742075 -0.852726 -0.170983
  C 3.293141 0.083899 -0.117645
  C 3.516363 0.520046 1.317906
  C 2.237485 0.317910 2.125660
  H 2.386681 0.667694 3.144510
  C 3.230221 0.972297 -1.226855
  C 4.551134 0.322005 -1.055838
  C 5.098406 -0.607694 -1.989603
  C 4.366874 -1.494017 -2.924739
  C 2.929806 -1.898514 -2.624329
  H 2.560140 -2.495585 -3.453831
  O 6.382794 -0.680014 -2.142998
  H 3.800514 1.571360 1.346705
  H 4.318938 -0.070485 1.762405
  H 1.960398 -0.732318 2.163982
  H 1.413820 0.878612 1.691572
  H 2.603787 1.139218 -2.072116
  H 5.295730 0.919456 -0.534213
  H 4.983181 -2.389758 -3.051782
  H 4.402195 -0.988137 -3.898293
  H 2.272433 -1.043717 -2.515580
  H 2.875402 -2.512542 -1.729668
  H 6.930629 -0.094001 -1.581684
