 20
 0.000000
  C 0.965413 0.190335 0.524656
  C 2.410667 0.106456 0.318559
  H 3.061673 0.429079 1.121735
  C 2.971875 -0.363062 -0.849416
  C 4.358517 -0.427150 -1.009947
  C 5.108331 -0.864455 -2.102905
  C 4.667540 -1.391458 -3.418434
  C 3.191819 -1.525689 -3.751502
  H 3.105241 -1.928884 -4.758730
  O 6.415931 -0.832679 -2.026271
  H 0.709521 0.583665 1.502502
  H 0.507318 -0.793249 0.396534
  H 0.508643 0.812263 -0.248871
  H 2.310949 -0.679873 -1.638412
  H 4.938541 -0.085324 -0.158285
  H 5.153869 -2.367646 -3.528025
  H 5.152888 -0.760262 -4.171709
  H 2.690566 -0.562246 -3.740215
  H 2.691531 -2.215835 -3.078325
  H 6.778379 -0.496188 -1.184338
 20
 8.086567
  C 0.862285 0.201990 0.553411
  C 2.463848 0.106079 0.317906
  H 3.114925 0.427057 1.117224
  C 3.008746 -0.361687 -0.845869
  C 4.393660 -0.429921 -1.016730
  C 5.134802 -0.870316 -2.117578
  C 4.681294 -1.396067 -3.430001
  C 3.202363 -1.525743 -3.751471
  H 3.106506 -1.928347 -4.757236
  O 6.444186 -0.842485 -2.050915
  H 0.618008 0.595196 1.531137
  H 0.407918 -0.779972 0.428228
  H 0.409368 0.824944 -0.216791
  H 2.340640 -0.676140 -1.629152
  H 4.981353 -0.089846 -0.169337
  H 5.163800 -2.373944 -3.543702
  H 5.162731 -0.766402 -4.187420
  H 2.704153 -0.560760 -3.736393
  H 2.705243 -2.214441 -3.074509
  H 6.814759 -0.507122 -1.211745
 20
 24.997109
  C 0.758793 0.208847 0.569968
  C 2.518962 0.106176 0.318741
  H 3.153178 0.428874 1.122914
  C 3.040879 -0.359016 -0.838973
  C 4.428805 -0.431765 -1.021085
  C 5.159747 -0.875897 -2.131702
  C 4.690622 -1.399059 -3.437679
  C 3.208226 -1.523172 -3.744647
  H 3.100773 -1.925076 -4.748669
  O 6.466077 -0.852398 -2.076132
  H 0.536574 0.601275 1.546202
  H 0.330365 -0.775397 0.446465
  H 0.332170 0.835007 -0.200416
  H 2.364120 -0.671070 -1.616710
  H 5.025456 -0.093619 -0.178314
  H 5.168661 -2.378910 -3.556860
  H 5.167364 -0.771549 -4.200454
  H 2.713531 -0.556360 -3.724957
  H 2.714931 -2.210164 -3.063087
  H 6.846852 -0.518468 -1.240335
 20
 43.852197
  C 0.645626 0.219979 0.597267
  C 2.565064 0.112356 0.334584
  H 3.183922 0.440047 1.151485
  C 3.077403 -0.359465 -0.839861
  C 4.465367 -0.436322 -1.032300
  C 5.185313 -0.882325 -2.147907
  C 4.701659 -1.403740 -3.449543
  C 3.216551 -1.523111 -3.744278
  H 3.099224 -1.924844 -4.747830
  O 6.494624 -0.862427 -2.101460
  H 0.444996 0.614759 1.579706
  H 0.243526 -0.776525 0.473533
  H 0.245540 0.855056 -0.181620
  H 2.394832 -0.669590 -1.612936
  H 5.068987 -0.100289 -0.194720
  H 5.175644 -2.385056 -3.573653
  H 5.174197 -0.778480 -4.216896
  H 2.724906 -0.554857 -3.720666
  H 2.726472 -2.208548 -3.058829
  H 6.884669 -0.530010 -1.269191
 20
 62.378614
  C 0.547040 0.223422 0.605341
  C 2.625131 0.109348 0.327661
  H 3.229157 0.438851 1.149376
  C 3.111518 -0.355324 -0.829202
  C 4.494500 -0.436594 -1.032818
  C 5.202712 -0.885566 -2.156161
  C 4.704928 -1.404653 -3.451992
  C 3.217085 -1.518855 -3.733449
  H 3.089467 -1.920045 -4.735578
  O 6.508632 -0.870307 -2.121475
  H 0.373275 0.618333 1.588415
  H 0.173523 -0.778878 0.482301
  H 0.175754 0.863348 -0.176919
  H 2.421264 -0.662487 -1.594978
  H 5.106758 -0.102564 -0.200215
  H 5.174598 -2.387525 -3.581048
  H 5.173025 -0.781592 -4.224017
  H 2.728753 -0.548899 -3.705702
  H 2.730501 -2.202718 -3.043814
  H 6.908132 -0.539746 -1.293725
 20
 77.155172
  C 0.418876 0.224434 0.605684
  C 2.663561 0.125862 0.371519
  H 3.202296 0.468627 1.227945
  C 3.130030 -0.342229 -0.794552
  C 4.527660 -0.433497 -1.024309
  C 5.223165 -0.891441 -2.171573
  C 4.702862 -1.408141 -3.461384
  C 3.211905 -1.517158 -3.728160
  H 3.080001 -1.918120 -4.729676
  O 6.531838 -0.884150 -2.158009
  H 0.316949 0.619513 1.590407
  H 0.163370 -0.807300 0.464831
  H 0.166821 0.874088 -0.209224
  H 2.428397 -0.646111 -1.552710
  H 5.155599 -0.102218 -0.198710
  H 5.168261 -2.392109 -3.600276
  H 5.166062 -0.790656 -4.241334
  H 2.725147 -0.546136 -3.706438
  H 2.727742 -2.206325 -3.042065
  H 6.949148 -0.556495 -1.337999
 20
 90.657291
  C 0.310769 0.212828 0.564123
  C 2.721292 0.127151 0.389333
  H 3.181656 0.481176 1.280210
  C 3.172836 -0.337494 -0.767249
  C 4.576573 -0.436421 -1.027213
  C 5.232652 -0.891801 -2.176606
  C 4.691870 -1.403729 -3.454528
  C 3.196176 -1.504375 -3.691062
  H 3.036109 -1.902650 -4.687632
  O 6.526800 -0.894912 -2.195693
  H 0.267231 0.606558 1.548167
  H 0.158789 -0.835118 0.418206
  H 0.168494 0.872881 -0.264576
  H 2.466525 -0.641749 -1.525142
  H 5.221299 -0.107822 -0.212424
  H 5.148529 -2.389780 -3.598807
  H 5.142278 -0.784970 -4.239372
  H 2.717474 -0.529190 -3.650416
  H 2.724513 -2.187048 -2.988964
  H 6.957478 -0.570562 -1.385342
 20
 100.628002
  C 0.217675 0.203824 0.520215
  C 2.791856 0.125500 0.409836
  H 3.179570 0.490027 1.336542
  C 3.231734 -0.333913 -0.733636
  C 4.633204 -0.437401 -1.022717
  C 5.243500 -0.885611 -2.167643
  C 4.669839 -1.400255 -3.452731
  C 3.168559 -1.495464 -3.659382
  H 2.986961 -1.892721 -4.657394
  O 6.569528 -0.898448 -2.222273
  H 0.176111 0.602940 1.522632
  H 0.111916 -0.853242 0.367676
  H 0.131583 0.869511 -0.317120
  H 2.530919 -0.637342 -1.488529
  H 5.287309 -0.113434 -0.227102
  H 5.118273 -2.388100 -3.606620
  H 5.104881 -0.780425 -4.244571
  H 2.695675 -0.519067 -3.608474
  H 2.710368 -2.178777 -2.950390
  H 7.012096 -0.579570 -1.426868
 20
 107.072502
  C 0.113859 0.195166 0.490013
  C 2.849086 0.124854 0.417733
  H 3.190032 0.491246 1.352516
  C 3.278054 -0.329102 -0.714175
  C 4.687427 -0.439557 -1.025633
  C 5.266231 -0.889791 -2.179852
  C 4.661449 -1.396787 -3.446277
  C 3.151875 -1.476984 -3.610415
  H 2.938194 -1.870452 -4.600136
  O 6.597404 -0.915825 -2.270767
  H 0.079169 0.587812 1.479709
  H 0.042431 -0.861772 0.335528
  H 0.064622 0.860960 -0.346907
  H 2.568657 -0.634480 -1.475096
  H 5.358774 -0.117589 -0.236541
  H 5.096533 -2.388613 -3.610086
  H 5.081160 -0.778740 -4.247325
  H 2.690335 -0.494715 -3.545521
  H 2.707272 -2.157071 -2.888204
  H 7.068743 -0.595324 -1.472066
 20
 111.095625
  C 0.013453 0.187638 0.466579
  C 2.909324 0.133862 0.444386
  H 3.199651 0.507137 1.398139
  C 3.329925 -0.317709 -0.683733
  C 4.735068 -0.438131 -1.020828
  C 5.279909 -0.889558 -2.179092
  C 4.650435 -1.396514 -3.446302
  C 3.138316 -1.469392 -3.590957
  H 2.909826 -1.862118 -4.579874
  O 6.612073 -0.926321 -2.297834
  H -0.022234 0.583499 1.466994
  H -0.025060 -0.873657 0.310486
  H -0.002684 0.856255 -0.372984
  H 2.621697 -0.620321 -1.439003
  H 5.417667 -0.122219 -0.246655
  H 5.077323 -2.391122 -3.615546
  H 5.061473 -0.779252 -4.252574
  H 2.683215 -0.484783 -3.521178
  H 2.700644 -2.148786 -2.864233
  H 7.086518 -0.614769 -1.522118
 20
 113.292960
  C -0.084518 0.168175 0.418756
  C 2.970865 0.141640 0.462382
  H 3.202630 0.518539 1.425404
  C 3.386150 -0.306358 -0.658764
  C 4.786620 -0.437301 -1.019862
  C 5.294864 -0.894263 -2.189525
  C 4.630272 -1.392755 -3.436217
  C 3.113795 -1.446051 -3.535701
  H 2.851088 -1.835399 -4.516038
  O 6.628303 -0.948229 -2.348341
  H -0.125859 0.560276 1.411344
  H -0.087483 -0.891274 0.263541
  H -0.067435 0.836239 -0.417868
  H 2.673472 -0.610594 -1.418179
  H 5.486252 -0.126000 -0.256026
  H 5.039658 -2.391912 -3.614533
  H 5.025529 -0.779333 -4.251756
  H 2.674138 -0.454841 -3.453697
  H 2.689605 -2.120819 -2.795993
  H 7.135762 -0.635337 -1.568750
 20
 114.391926
  C -0.182209 0.148857 0.374128
  C 3.030730 0.156004 0.493551
  H 3.202012 0.538474 1.469698
  C 3.442937 -0.290737 -0.625890
  C 4.834025 -0.433664 -1.013367
  C 5.306789 -0.895061 -2.189614
  C 4.609677 -1.390251 -3.428575
  C 3.089147 -1.429041 -3.497711
  H 2.802746 -1.816706 -4.473382
  O 6.638741 -0.963766 -2.380456
  H -0.232349 0.543261 1.373170
  H -0.150293 -0.912428 0.221004
  H -0.133678 0.819460 -0.461744
  H 2.729474 -0.594200 -1.382388
  H 5.546745 -0.128989 -0.264841
  H 5.005512 -2.394525 -3.613143
  H 4.993949 -0.779229 -4.252107
  H 2.661062 -0.433145 -3.409307
  H 2.673691 -2.100888 -2.750150
  H 7.152086 -0.662241 -1.627583
 20
 114.921655
  C -0.284038 0.129858 0.328321
  C 3.085014 0.166354 0.516828
  H 3.207336 0.550407 1.496957
  C 3.495629 -0.279260 -0.601539
  C 4.876139 -0.432723 -1.012865
  C 5.317189 -0.900582 -2.202452
  C 4.586326 -1.386727 -3.418755
  C 3.065324 -1.407163 -3.445078
  H 2.747131 -1.791307 -4.411497
  O 6.643129 -0.983843 -2.427474
  H -0.347413 0.521657 1.321735
  H -0.230651 -0.928489 0.177583
  H -0.216217 0.800353 -0.503270
  H 2.776432 -0.582889 -1.358171
  H 5.605752 -0.133131 -0.275576
  H 4.965085 -2.394690 -3.611287
  H 4.954873 -0.779476 -4.250547
  H 2.652095 -0.405968 -3.346483
  H 2.663157 -2.074812 -2.686566
  H 7.190797 -0.679923 -1.668502
 20
 115.177223
  C -0.389632 0.113320 0.288926
  C 3.134136 0.179938 0.547510
  H 3.210730 0.566293 1.532896
  C 3.542577 -0.264707 -0.569750
  C 4.914984 -0.430021 -1.007911
  C 5.325411 -0.900989 -2.202578
  C 4.563425 -1.383041 -3.408494
  C 3.040043 -1.391019 -3.405875
  H 2.700034 -1.773061 -4.366659
  O 6.647228 -0.995819 -2.455182
  H -0.468520 0.506282 1.285672
  H -0.318750 -0.946015 0.140042
  H -0.306480 0.785939 -0.541759
  H 2.817416 -0.566557 -1.321949
  H 5.658650 -0.137118 -0.285569
  H 4.930028 -2.395469 -3.607334
  H 4.920760 -0.777655 -4.247956
  H 2.636604 -0.385870 -3.301646
  H 2.646561 -2.056881 -2.640534
  H 7.196214 -0.703782 -1.726064
