 23
 0.000000
  C 1.004253 0.112616 0.329627
  C 2.479470 0.126060 0.366091
  C 3.229924 0.603042 1.553875
  C 2.411600 1.082293 2.745498
  H 3.083078 1.399862 3.537359
  C 3.143030 -0.329781 -0.767310
  C 4.525446 -0.394086 -0.928378
  C 5.181832 -0.850013 -2.067036
  C 4.529672 -1.345031 -3.298248
  H 3.447928 -1.326830 -3.249540
  O 6.493007 -0.870812 -2.124680
  H 0.550174 0.479474 1.241364
  H 0.647813 -0.901228 0.138801
  H 0.649290 0.713174 -0.509826
  H 3.890700 1.417281 1.235826
  H 3.889815 -0.205432 1.887945
  H 1.783406 0.289187 3.141886
  H 1.784652 1.930068 2.482830
  H 2.519243 -0.658206 -1.585372
  H 5.149423 -0.064909 -0.108581
  H 4.872209 -2.361720 -3.496250
  H 4.870338 -0.746838 -4.144661
  H 6.946358 -0.547916 -1.324396
 23
 9.150098
  C 0.991217 0.117460 0.341677
  C 2.463185 0.127508 0.369727
  C 3.219679 0.601882 1.550965
  C 2.409611 1.082959 2.747166
  H 3.087199 1.399214 3.535772
  C 3.119301 -0.330629 -0.769298
  C 4.503865 -0.397904 -0.937673
  C 5.143716 -0.852235 -2.072315
  C 4.520218 -1.346549 -3.301957
  H 3.439553 -1.333265 -3.265402
  O 6.614487 -0.871950 -2.127859
  H 0.542990 0.485331 1.255890
  H 0.631694 -0.895380 0.152030
  H 0.633195 0.718096 -0.496250
  H 3.880781 1.414045 1.228961
  H 3.879949 -0.207798 1.880742
  H 1.781850 0.290987 3.147635
  H 1.783091 1.932733 2.488241
  H 2.489825 -0.657666 -1.583901
  H 5.133321 -0.070034 -0.121082
  H 4.871057 -2.361157 -3.496120
  H 4.869106 -0.747095 -4.144099
  H 7.041816 -0.546658 -1.321803
 23
 26.640544
  C 0.979713 0.126460 0.364997
  C 2.446746 0.131100 0.381642
  C 3.211800 0.602137 1.552826
  C 2.414993 1.087320 2.755020
  H 3.102602 1.402500 3.539822
  C 3.092761 -0.332459 -0.768510
  C 4.479111 -0.404163 -0.947838
  C 5.070537 -0.857976 -2.085317
  C 4.532015 -1.358727 -3.335225
  H 3.454162 -1.363091 -3.340884
  O 6.701598 -0.864676 -2.112374
  H 0.537002 0.496014 1.280862
  H 0.616545 -0.883179 0.172375
  H 0.619050 0.722061 -0.473804
  H 3.874669 1.409560 1.225162
  H 3.873108 -0.208026 1.876856
  H 1.786542 0.297256 3.162396
  H 1.788787 1.940665 2.500603
  H 2.456800 -0.658381 -1.580707
  H 5.118315 -0.080897 -0.141834
  H 4.911291 -2.361049 -3.518505
  H 4.908020 -0.757798 -4.159435
  H 7.038550 -0.530539 -1.281456
 23
 46.221380
  C 0.965320 0.128301 0.371534
  C 2.433878 0.131297 0.383091
  C 3.205186 0.601726 1.550914
  C 2.414505 1.088661 2.756448
  H 3.104006 1.402289 3.535951
  C 3.071555 -0.331039 -0.763482
  C 4.461126 -0.405010 -0.948355
  C 5.027790 -0.861446 -2.093708
  C 4.519144 -1.359802 -3.340803
  H 3.434537 -1.367653 -3.356352
  O 6.818256 -0.867710 -2.117978
  H 0.526793 0.498775 1.289065
  H 0.598965 -0.882503 0.179879
  H 0.601002 0.724602 -0.467734
  H 3.869423 1.408212 1.219364
  H 3.868307 -0.209843 1.872025
  H 1.787552 0.300982 3.166679
  H 1.789367 1.941769 2.505082
  H 2.435328 -0.656371 -1.573636
  H 5.109053 -0.083399 -0.145167
  H 4.907460 -2.364022 -3.521322
  H 4.904884 -0.754756 -4.163569
  H 7.126799 -0.526763 -1.266881
 23
 64.675885
  C 0.948467 0.133625 0.387944
  C 2.417141 0.134703 0.392223
  C 3.194456 0.604761 1.556455
  C 2.410404 1.093103 2.765209
  H 3.104837 1.406787 3.542665
  C 3.051014 -0.331367 -0.763460
  C 4.442653 -0.408458 -0.956211
  C 4.983077 -0.866358 -2.106208
  C 4.517443 -1.367103 -3.363082
  H 3.433683 -1.382799 -3.400686
  O 6.933043 -0.868472 -2.114976
  H 0.515329 0.505036 1.307535
  H 0.579626 -0.875484 0.198187
  H 0.580480 0.728849 -0.449097
  H 3.858725 1.409275 1.221487
  H 3.858728 -0.206715 1.874131
  H 1.783805 0.305682 3.179058
  H 1.784509 1.947574 2.516129
  H 2.412127 -0.656922 -1.573096
  H 5.096385 -0.090117 -0.160046
  H 4.917517 -2.366404 -3.537131
  H 4.916263 -0.760550 -4.176658
  H 7.198719 -0.529162 -1.263051
 23
 79.891800
  C 0.912667 0.145087 0.416540
  C 2.385509 0.137459 0.398749
  C 3.188390 0.602106 1.551014
  C 2.431646 1.096595 2.774341
  H 3.140396 1.403970 3.535383
  C 2.997889 -0.332490 -0.767914
  C 4.399488 -0.417336 -0.980426
  C 4.904256 -0.875581 -2.130064
  C 4.553289 -1.377335 -3.388094
  H 3.461843 -1.418906 -3.490433
  O 7.013008 -0.856233 -2.084433
  H 0.496851 0.519033 1.343884
  H 0.532741 -0.863459 0.231897
  H 0.533089 0.743916 -0.415867
  H 3.854187 1.402572 1.202780
  H 3.855322 -0.214870 1.855927
  H 1.808598 0.315676 3.200350
  H 1.808963 1.954517 2.538174
  H 2.351179 -0.655431 -1.571208
  H 5.065262 -0.101018 -0.189974
  H 4.988945 -2.373964 -3.538048
  H 4.987775 -0.756790 -4.183094
  H 7.218118 -0.514454 -1.225665
 23
 92.855869
  C 0.908012 0.151727 0.431839
  C 2.373626 0.139395 0.402778
  C 3.182379 0.600070 1.545897
  C 2.434066 1.095738 2.773216
  H 3.151296 1.402788 3.534435
  C 2.972358 -0.330819 -0.764642
  C 4.363626 -0.419138 -0.985774
  C 4.847056 -0.876602 -2.132638
  C 4.545521 -1.388340 -3.414298
  H 3.466670 -1.442641 -3.547735
  O 7.114137 -0.843347 -2.054138
  H 0.501988 0.526687 1.361993
  H 0.524570 -0.852514 0.250542
  H 0.524988 0.750024 -0.395076
  H 3.847336 1.396762 1.194422
  H 3.848071 -0.216753 1.845539
  H 1.809720 0.313929 3.203060
  H 1.810280 1.957199 2.539737
  H 2.320593 -0.652720 -1.565382
  H 5.033121 -0.105611 -0.202567
  H 4.991941 -2.374710 -3.551985
  H 4.990293 -0.767256 -4.193652
  H 7.291297 -0.497390 -1.185300
 23
 102.483432
  C 0.870816 0.161255 0.452849
  C 2.345637 0.141592 0.407604
  C 3.173699 0.600162 1.547444
  C 2.441804 1.099295 2.783712
  H 3.166311 1.401417 3.534633
  C 2.928964 -0.331444 -0.766649
  C 4.339681 -0.427497 -1.006808
  C 4.801802 -0.888090 -2.160541
  C 4.563506 -1.397008 -3.432962
  H 3.483639 -1.465228 -3.599312
  O 7.226683 -0.838464 -2.047262
  H 0.477143 0.538413 1.388550
  H 0.478583 -0.842831 0.275607
  H 0.479830 0.762923 -0.370891
  H 3.840213 1.394783 1.189047
  H 3.839986 -0.220937 1.840462
  H 1.819453 0.322129 3.219507
  H 1.820925 1.962357 2.558158
  H 2.270336 -0.650937 -1.561984
  H 5.020859 -0.115114 -0.227377
  H 5.024611 -2.381937 -3.555406
  H 5.022010 -0.766672 -4.201164
  H 7.378623 -0.490440 -1.175149
 23
 106.611528
  C 0.829612 0.188522 0.517439
  C 2.299701 0.140449 0.404102
  C 3.181175 0.583115 1.506512
  C 2.507975 1.093942 2.771625
  H 3.264750 1.382005 3.490434
  C 2.811454 -0.335706 -0.777317
  C 4.212587 -0.452581 -1.067152
  C 4.653211 -0.907030 -2.205206
  C 4.664162 -1.417615 -3.481000
  H 3.612102 -1.547918 -3.798162
  O 7.221662 -0.783997 -1.917928
  H 0.493452 0.573799 1.472978
  H 0.409458 -0.811480 0.365662
  H 0.412060 0.805532 -0.285293
  H 3.844536 1.370643 1.122990
  H 3.842251 -0.252021 1.776623
  H 1.891783 0.328618 3.230910
  H 1.894922 1.965933 2.571419
  H 2.128092 -0.645709 -1.550380
  H 4.906908 -0.141741 -0.290541
  H 5.170693 -2.390819 -3.530715
  H 5.166158 -0.745140 -4.189401
  H 7.356566 -0.429908 -1.037949
 23
 109.264586
  C 0.799833 0.196567 0.541087
  C 2.274441 0.140699 0.405099
  C 3.179724 0.581705 1.500547
  C 2.529150 1.096879 2.776652
  H 3.303283 1.382555 3.487198
  C 2.766801 -0.339810 -0.787364
  C 4.173548 -0.465644 -1.099548
  C 4.599792 -0.916506 -2.229601
  C 4.686690 -1.425794 -3.504618
  H 3.657852 -1.572259 -3.865286
  O 7.319337 -0.768385 -1.873623
  H 0.480637 0.583055 1.499506
  H 0.374189 -0.795877 0.397857
  H 0.375290 0.812871 -0.250452
  H 3.839171 1.364758 1.108676
  H 3.838266 -0.254811 1.761630
  H 1.914072 0.332162 3.247468
  H 1.915790 1.975453 2.584869
  H 2.071258 -0.647501 -1.553700
  H 4.872877 -0.159574 -0.333298
  H 5.202897 -2.389342 -3.532558
  H 5.200062 -0.745246 -4.189389
  H 7.445450 -0.414120 -0.988930
 23
 110.199071
  C 0.786281 0.205848 0.567499
  C 2.253490 0.139072 0.400975
  C 3.179704 0.572237 1.474398
  C 2.555426 1.091053 2.760392
  H 3.340946 1.370913 3.454386
  C 2.712852 -0.338704 -0.785187
  C 4.113519 -0.473112 -1.119398
  C 4.537485 -0.925817 -2.254443
  C 4.708844 -1.427575 -3.511878
  H 3.700043 -1.593985 -3.925003
  O 7.403989 -0.745582 -1.811683
  H 0.492249 0.595817 1.534674
  H 0.349506 -0.786450 0.435310
  H 0.349108 0.828641 -0.215973
  H 3.836036 1.352663 1.070358
  H 3.836649 -0.269751 1.724717
  H 1.945619 0.332083 3.241045
  H 1.945892 1.971245 2.579740
  H 2.006471 -0.642077 -1.539404
  H 4.822647 -0.167957 -0.354655
  H 5.238549 -2.386703 -3.512476
  H 5.237147 -0.731756 -4.173039
  H 7.524857 -0.395953 -0.933077
 23
 110.384905
  C 0.758760 0.215973 0.595009
  C 2.230661 0.140862 0.405367
  C 3.179393 0.572314 1.472750
  C 2.575939 1.095336 2.769921
  H 3.375171 1.371833 3.454104
  C 2.678355 -0.348026 -0.808792
  C 4.075295 -0.490407 -1.163611
  C 4.489900 -0.936764 -2.283101
  C 4.729995 -1.437707 -3.539261
  H 3.740622 -1.620072 -3.993772
  O 7.503320 -0.726939 -1.761387
  H 0.481694 0.607050 1.565019
  H 0.315225 -0.772286 0.471129
  H 0.313757 0.840916 -0.179645
  H 3.833104 1.350618 1.060331
  H 3.834729 -0.273163 1.715375
  H 1.968318 0.338157 3.260592
  H 1.967498 1.980481 2.597861
  H 1.960574 -0.649287 -1.556775
  H 4.791687 -0.188703 -0.407208
  H 5.268280 -2.391617 -3.518872
  H 5.267663 -0.731416 -4.181209
  H 7.622419 -0.372708 -0.866481
 23
 109.634441
  C 0.743062 0.343114 0.593272
  C 2.200605 0.192419 0.380865
  C 3.183141 0.519333 1.447731
  C 2.625209 1.016601 2.773528
  H 3.445788 1.217354 3.457406
  C 2.601990 -0.260149 -0.838876
  C 3.976701 -0.466212 -1.215150
  C 4.426502 -0.888555 -2.339825
  C 4.765030 -1.452461 -3.531334
  H 3.809355 -1.613919 -4.060820
  O 7.580851 -0.818496 -1.639690
  H 0.499197 0.706246 1.582894
  H 0.242253 -0.611401 0.431923
  H 0.328439 1.025539 -0.148582
  H 3.870280 1.280518 1.061192
  H 3.786089 -0.374028 1.646399
  H 1.982173 0.274049 3.238954
  H 2.068737 1.942157 2.648522
  H 1.864067 -0.487530 -1.590985
  H 4.711539 -0.240083 -0.443827
  H 5.228640 -2.436322 -3.423841
  H 5.375024 -0.802429 -4.162773
  H 7.747069 -0.487928 -0.751769
 23
 108.081999
  C 0.753997 0.366253 0.799557
  C 2.177382 0.182242 0.437615
  C 3.275854 0.509611 1.387193
  C 2.872570 1.043899 2.754712
  H 3.766214 1.239435 3.342706
  C 2.448012 -0.302638 -0.810759
  C 3.762002 -0.542828 -1.325851
  C 4.186441 -0.982735 -2.451606
  C 4.739131 -1.488790 -3.597483
  H 3.905894 -1.765634 -4.266355
  O 7.238423 -0.702111 -1.671168
  H 0.621383 0.752616 1.802078
  H 0.221756 -0.581366 0.713443
  H 0.275531 1.045228 0.093352
  H 3.932487 1.247680 0.912257
  H 3.880353 -0.392165 1.537784
  H 2.268014 0.324113 3.301441
  H 2.321980 1.977887 2.671074
  H 1.629406 -0.532658 -1.475533
  H 4.599913 -0.297468 -0.662624
  H 5.301460 -2.410654 -3.417601
  H 5.343933 -0.749673 -4.132796
  H 7.539604 -0.362425 -0.826222
