 14
 0.000000
  H 1.405224 0.134920 0.386628
  C 2.475139 0.140018 0.399085
  H 3.027530 0.481638 1.249414
  C 3.096863 -0.322475 -0.752613
  C 4.472906 -0.413204 -0.978851
  C 5.132414 -0.867699 -2.111643
  C 4.618673 -1.388937 -3.410716
  H 3.569972 -1.467842 -3.607948
  O 6.457488 -0.870547 -2.119086
  H 2.436796 -0.639606 -1.542199
  H 5.100515 -0.083792 -0.158214
  H 5.068655 -2.379864 -3.541239
  H 5.069011 -0.763340 -4.190016
  H 6.834017 -0.535875 -1.285013
 14
 0.000000
  H 1.469545 0.111814 0.329055
  C 2.569498 0.117725 0.343540
  H 3.120381 0.459683 1.194712
  C 3.156047 -0.331124 -0.774176
  C 4.466402 -0.419413 -0.994326
  C 5.094065 -0.859174 -2.090400
  C 4.596721 -1.382615 -3.394959
  H 3.550574 -1.466084 -3.603554
  O 6.356282 -0.847639 -2.061999
  H 2.489628 -0.646403 -1.559155
  H 5.098703 -0.091247 -0.176796
  H 5.052407 -2.371568 -3.520571
  H 5.052756 -0.755042 -4.169343
  H 6.692192 -0.495517 -1.184439
 14
 0.000000
  H 1.529729 0.089072 0.272387
  C 2.663248 0.096170 0.289833
  H 3.211933 0.438617 1.142226
  C 3.216741 -0.339408 -0.794827
  C 4.461151 -0.425607 -1.009763
  C 5.057891 -0.851158 -2.070425
  C 4.576688 -1.376689 -3.380190
  H 3.533182 -1.464622 -3.599896
  O 6.256586 -0.826674 -2.009754
  H 2.543652 -0.652712 -1.574893
  H 5.098808 -0.098881 -0.195825
  H 5.037906 -2.363684 -3.500928
  H 5.038247 -0.747156 -4.149695
  H 6.547930 -0.455438 -1.084558
 14
 0.000000
  H 1.585516 0.066647 0.216512
  C 2.756288 0.075353 0.237968
  H 3.302062 0.418446 1.091971
  C 3.278841 -0.347344 -0.814614
  C 4.457398 -0.431671 -1.024877
  C 5.024123 -0.843580 -2.051542
  C 4.558564 -1.371063 -3.366170
  H 3.517740 -1.463296 -3.596577
  O 6.158858 -0.807684 -1.962428
  H 2.598866 -0.658574 -1.589522
  H 5.101029 -0.106572 -0.214998
  H 5.025066 -2.356145 -3.482147
  H 5.025400 -0.739615 -4.130909
  H 6.400755 -0.416015 -0.986313
 14
 0.000000
  H 1.635243 0.044700 0.161825
  C 2.848370 0.055548 0.188622
  H 3.390404 0.399461 1.044674
  C 3.342323 -0.354856 -0.833345
  C 4.455441 -0.437534 -1.039489
  C 4.993162 -0.836585 -2.034113
  C 4.542439 -1.365854 -3.353187
  H 3.504265 -1.462140 -3.593680
  O 6.063849 -0.790891 -1.920579
  H 2.655230 -0.663906 -1.602830
  H 5.105781 -0.114291 -0.234238
  H 5.013881 -2.349108 -3.464615
  H 5.014207 -0.732576 -4.113373
  H 6.250554 -0.377173 -0.889513
 14
 0.000000
  H 1.677016 0.023260 0.108402
  C 2.939787 0.036946 0.142275
  H 3.477101 0.381886 1.000888
  C 3.407531 -0.361898 -0.850904
  C 4.455647 -0.443143 -1.053471
  C 4.965289 -0.830297 -2.018446
  C 4.528286 -1.361162 -3.341491
  H 3.492656 -1.461174 -3.591257
  O 5.971793 -0.776433 -1.884546
  H 2.713033 -0.668638 -1.614646
  H 5.113609 -0.122045 -0.253566
  H 5.004237 -2.342712 -3.448684
  H 5.004554 -0.726179 -4.097438
  H 6.096106 -0.338564 -0.793294
 14
 0.000000
  H 1.709125 0.002650 0.057047
  C 3.028954 0.019967 0.099973
  H 3.560568 0.366130 0.961638
  C 3.473310 -0.368330 -0.866943
  C 4.458269 -0.448313 -1.066358
  C 4.941210 -0.824824 -2.004809
  C 4.516325 -1.357053 -3.331250
  H 3.483017 -1.460341 -3.589165
  O 5.884679 -0.764539 -1.854900
  H 2.771286 -0.672680 -1.624741
  H 5.124651 -0.129631 -0.272476
  H 4.996213 -2.337090 -3.434678
  H 4.996521 -0.720555 -4.083429
  H 5.939191 -0.300990 -0.699654
 14
 0.000000
  H 1.729226 -0.017059 0.007934
  C 3.115706 0.004910 0.062459
  H 3.640492 0.352516 0.927723
  C 3.539616 -0.374059 -0.881232
  C 4.463596 -0.452966 -1.077955
  C 4.921221 -0.820312 -1.993567
  C 4.506516 -1.353654 -3.322778
  H 3.475211 -1.459683 -3.587508
  O 5.803007 -0.755300 -1.831870
  H 2.829927 -0.675927 -1.632860
  H 5.139322 -0.137022 -0.290900
  H 4.989676 -2.332413 -3.423029
  H 4.989975 -0.715877 -4.071777
  H 5.778914 -0.264216 -0.608008
 14
 0.000000
  H 1.734749 -0.035672 -0.038447
  C 3.199150 -0.007790 0.030819
  H 3.715903 0.341482 0.900239
  C 3.605801 -0.378928 -0.893376
  C 4.471822 -0.456972 -1.087941
  C 4.905678 -0.816927 -1.985133
  C 4.498768 -1.351103 -3.316417
  H 3.469029 -1.459223 -3.586346
  O 5.727801 -0.748841 -1.815765
  H 2.888342 -0.678232 -1.638628
  H 5.157862 -0.144124 -0.308603
  H 4.984413 -2.328878 -3.414225
  H 4.984703 -0.712341 -4.062970
  H 5.615352 -0.228346 -0.518615
 14
 0.000000
  H 1.723479 -0.053012 -0.081663
  C 3.278264 -0.017714 0.006096
  H 3.785774 0.333434 0.880195
  C 3.671004 -0.382765 -0.902948
  C 4.482961 -0.460199 -1.095985
  C 4.894692 -0.814790 -1.979809
  C 4.492781 -1.349492 -3.312400
  H 3.464061 -1.458952 -3.585654
  O 5.659865 -0.745184 -1.806642
  H 2.945706 -0.679431 -1.641643
  H 5.180285 -0.150829 -0.325315
  H 4.980012 -2.326633 -3.408636
  H 4.980294 -0.710096 -4.057380
  H 5.448687 -0.193584 -0.431987
 14
 0.000000
  H 1.692927 -0.068957 -0.121403
  C 3.351788 -0.024433 -0.010643
  H 3.848825 0.328786 0.868625
  C 3.734169 -0.385385 -0.909486
  C 4.496946 -0.462514 -1.101758
  C 4.888299 -0.814016 -1.977884
  C 4.488259 -1.348914 -3.310959
  H 3.459923 -1.458878 -3.585454
  O 5.599959 -0.744289 -1.804402
  H 3.001052 -0.679365 -1.641505
  H 5.206451 -0.157009 -0.340719
  H 4.976084 -2.325817 -3.406606
  H 4.976357 -0.709280 -4.055350
  H 5.279476 -0.160066 -0.348459
 14
 0.000000
  H 1.639520 -0.082988 -0.156378
  C 3.418447 -0.027226 -0.017599
  H 3.904039 0.328194 0.867159
  C 3.794127 -0.386459 -0.912170
  C 4.513922 -0.463813 -1.104995
  C 4.886498 -0.814923 -1.980145
  C 4.484309 -1.349599 -3.312663
  H 3.455531 -1.458994 -3.585729
  O 5.549083 -0.746376 -1.809591
  H 3.053075 -0.677658 -1.637278
  H 5.236676 -0.162648 -0.354771
  H 4.971460 -2.326772 -3.408988
  H 4.971726 -0.710235 -4.057732
  H 5.109667 -0.127760 -0.267961
 14
 0.000000
  H 1.609423 -0.087765 -0.168290
  C 3.434164 -0.026816 -0.016580
  H 3.914514 0.329591 0.870641
  C 3.809800 -0.386055 -0.911168
  C 4.517322 -0.463403 -1.103976
  C 4.885073 -0.815081 -1.980539
  C 4.482559 -1.349724 -3.312973
  H 3.453715 -1.459033 -3.585823
  O 5.532294 -0.746946 -1.811009
  H 3.066939 -0.676612 -1.634681
  H 5.243939 -0.163529 -0.356969
  H 4.969609 -2.326938 -3.409401
  H 4.969873 -0.710400 -4.058145
  H 5.048758 -0.115978 -0.238603
 14
 0.000000
  H 1.463377 -0.110251 -0.224355
  C 3.545727 -0.022315 -0.005353
  H 4.003546 0.338179 0.892064
  C 3.915327 -0.383887 -0.905775
  C 4.556054 -0.462875 -1.102661
  C 4.889382 -0.819944 -1.992661
  C 4.471218 -1.352921 -3.320937
  H 3.439226 -1.458049 -3.583344
  O 5.454652 -0.757041 -1.836145
  H 3.156315 -0.668576 -1.614700
  H 5.310790 -0.172807 -0.380085
  H 4.953296 -2.332102 -3.422276
  H 4.953546 -0.715566 -4.071022
  H 4.717802 -0.063092 -0.106836
