 19
 0.000000
  C 0.987589 0.057851 0.175960
  C 2.491847 0.055789 0.174219
  C 3.259478 -0.013954 1.473225
  C 2.439017 -0.096995 2.757847
  H 3.112658 -0.142750 3.607666
  C 3.127551 0.121384 -1.003257
  H 2.524742 0.172605 -1.900310
  C 4.554316 0.131873 -1.224082
  C 5.101192 0.199414 -2.436259
  H 6.168144 0.205869 -2.583205
  H 0.573374 0.016482 1.177181
  H 0.604457 -0.797669 -0.380805
  H 0.612697 0.957003 -0.309574
  H 3.903813 0.869585 1.536835
  H 3.918593 -0.887858 1.433640
  H 1.816128 -0.992928 2.774285
  H 1.802728 0.781001 2.881433
  H 5.195084 0.081957 -0.354423
  H 4.493731 0.250737 -3.325866
 19
 3.857236
  C 0.987647 0.096648 0.191501
  C 2.466953 0.065204 0.172050
  C 3.249029 -0.004488 1.468867
  C 2.436929 -0.108622 2.753137
  H 3.115773 -0.153515 3.602384
  C 3.103907 0.126215 -1.008773
  H 2.506460 0.182844 -1.911760
  C 4.530736 0.120093 -1.223402
  C 5.084589 0.183753 -2.428866
  H 6.151767 0.181671 -2.568223
  H 0.544066 0.023552 1.170237
  H 0.815985 -0.779589 -0.379893
  H 0.584178 0.964202 -0.320300
  H 3.880995 0.885929 1.535652
  H 3.920064 -0.866512 1.419317
  H 1.828124 -1.010431 2.763904
  H 1.793600 0.758415 2.886673
  H 5.165996 0.063596 -0.350589
  H 4.484891 0.242081 -3.322389
 19
 11.220045
  C 0.971910 0.133150 0.200568
  C 2.457911 0.090863 0.177481
  C 3.249742 0.016809 1.467305
  C 2.431815 -0.124497 2.752486
  H 3.111406 -0.173058 3.611555
  C 3.094787 0.146828 -1.004092
  H 2.499442 0.226443 -1.906869
  C 4.514753 0.101007 -1.222547
  C 5.068391 0.162925 -2.432547
  H 6.135479 0.132429 -2.574870
  H 0.506211 0.032438 1.163272
  H 1.012111 -0.777891 -0.359149
  H 0.544969 0.948174 -0.362122
  H 3.861483 0.924825 1.545043
  H 3.942035 -0.830514 1.405232
  H 1.837890 -1.036812 2.743657
  H 1.772451 0.729170 2.896951
  H 5.151322 0.018462 -0.353579
  H 4.468346 0.248280 -3.323940
 19
 21.756071
  C 0.949192 0.157423 0.213957
  C 2.449662 0.093875 0.172837
  C 3.244555 0.017848 1.455842
  C 2.430231 -0.134055 2.745795
  H 3.113627 -0.182785 3.601282
  C 3.087201 0.147373 -1.009943
  H 2.494139 0.231244 -1.912329
  C 4.508053 0.095084 -1.224074
  C 5.067265 0.154940 -2.431408
  H 6.135753 0.118644 -2.568690
  H 0.478499 0.049272 1.170616
  H 1.148643 -0.750739 -0.318287
  H 0.509345 0.935501 -0.375173
  H 3.850120 0.931120 1.532466
  H 3.943541 -0.825234 1.388385
  H 1.838343 -1.053680 2.735229
  H 1.763935 0.719439 2.897502
  H 5.140655 0.008724 -0.353689
  H 4.471064 0.244826 -3.326125
 19
 32.271039
  C 0.945037 0.177166 0.227559
  C 2.447672 0.092175 0.164744
  C 3.237070 0.016451 1.460614
  C 2.423362 -0.142236 2.741477
  H 3.102580 -0.189295 3.596212
  C 3.085958 0.144304 -1.020385
  H 2.491838 0.229694 -1.924537
  C 4.503537 0.090146 -1.232894
  C 5.064271 0.149364 -2.440203
  H 6.130842 0.113111 -2.576137
  H 0.462768 0.069488 1.179442
  H 1.269992 -0.737619 -0.291265
  H 0.478635 0.937670 -0.383723
  H 3.834782 0.931250 1.543076
  H 3.940911 -0.820497 1.396693
  H 1.840978 -1.057769 2.727031
  H 1.757842 0.700402 2.892129
  H 5.135990 0.003323 -0.360223
  H 4.470175 0.239823 -3.334202
 19
 40.386822
  C 0.936523 0.198878 0.227826
  C 2.436133 0.093119 0.162011
  C 3.237254 0.011084 1.459326
  C 2.422246 -0.151543 2.741297
  H 3.102111 -0.202142 3.597089
  C 3.086084 0.149651 -1.026446
  H 2.493464 0.249682 -1.929887
  C 4.491960 0.087173 -1.235868
  C 5.057860 0.150631 -2.443862
  H 6.125657 0.105746 -2.576393
  H 0.464704 0.118148 1.174835
  H 1.354301 -0.729223 -0.208585
  H 0.469958 0.885407 -0.447890
  H 3.828413 0.927394 1.537951
  H 3.944261 -0.824533 1.394297
  H 1.835251 -1.070791 2.723281
  H 1.754386 0.694842 2.895008
  H 5.124012 -0.011164 -0.364387
  H 4.465889 0.252866 -3.340705
 19
 46.394796
  C 0.931625 0.215603 0.245171
  C 2.427415 0.094555 0.158560
  C 3.217717 0.009857 1.437885
  C 2.416866 -0.159642 2.725126
  H 3.109043 -0.217185 3.576236
  C 3.078624 0.154858 -1.031745
  H 2.483900 0.267568 -1.934070
  C 4.496988 0.083030 -1.239156
  C 5.070541 0.149385 -2.442281
  H 6.135885 0.098160 -2.567624
  H 0.464861 0.168523 1.218851
  H 1.422207 -0.737950 -0.126263
  H 0.447397 0.839816 -0.484328
  H 3.808214 0.931904 1.514121
  H 3.927681 -0.823810 1.364095
  H 1.833466 -1.070381 2.708557
  H 1.758074 0.679873 2.892444
  H 5.127324 -0.025410 -0.364321
  H 4.487812 0.261281 -3.337384
 19
 50.747983
  C 0.929408 0.232567 0.243294
  C 2.423914 0.096163 0.151780
  C 3.216854 0.007802 1.440176
  C 2.416471 -0.168427 2.731574
  H 3.102859 -0.233647 3.568265
  C 3.081265 0.160449 -1.040873
  H 2.489631 0.281974 -1.936904
  C 4.490605 0.081900 -1.245039
  C 5.069571 0.149916 -2.448258
  H 6.137463 0.090835 -2.570119
  H 0.467694 0.219313 1.204663
  H 1.481488 -0.741406 -0.067005
  H 0.437494 0.787813 -0.523309
  H 3.806531 0.930949 1.519002
  H 3.927087 -0.824081 1.363555
  H 1.826482 -1.082301 2.712202
  H 1.758649 0.676920 2.910739
  H 5.117784 -0.034913 -0.371097
  H 4.487746 0.269577 -3.348600
 19
 53.963952
  C 0.939688 0.246390 0.252309
  C 2.429300 0.095393 0.157427
  C 3.218318 0.003630 1.441038
  C 2.411001 -0.173907 2.714039
  H 3.094540 -0.250020 3.562494
  C 3.085657 0.164138 -1.042030
  H 2.486733 0.292352 -1.940007
  C 4.490591 0.080522 -1.249512
  C 5.068724 0.150640 -2.454168
  H 6.132649 0.090881 -2.576811
  H 0.469993 0.276082 1.227577
  H 1.539637 -0.741946 0.003109
  H 0.433991 0.725701 -0.554680
  H 3.802160 0.914938 1.525193
  H 3.922463 -0.823941 1.365989
  H 1.810809 -1.088453 2.681202
  H 1.753592 0.680569 2.892000
  H 5.119784 -0.040478 -0.377198
  H 4.488234 0.274958 -3.350059
 19
 56.667530
  C 0.930791 0.264186 0.239472
  C 2.419967 0.094900 0.149055
  C 3.219275 -0.001378 1.447585
  C 2.410315 -0.184129 2.736075
  H 3.091794 -0.270722 3.577277
  C 3.077233 0.164063 -1.051445
  H 2.481001 0.294316 -1.940989
  C 4.491871 0.072558 -1.260765
  C 5.073647 0.146957 -2.461440
  H 6.143136 0.099408 -2.579757
  H 0.458055 0.324157 1.195461
  H 1.572734 -0.741949 0.038441
  H 0.424297 0.679589 -0.598638
  H 3.816783 0.921585 1.535316
  H 3.921834 -0.831062 1.366906
  H 1.810874 -1.081245 2.701751
  H 1.768617 0.661430 2.921998
  H 5.118506 -0.046675 -0.391900
  H 4.494585 0.282766 -3.360263
 19
 59.156414
  C 0.936754 0.276436 0.239889
  C 2.421546 0.094504 0.151072
  C 3.220461 -0.001832 1.448497
  C 2.412966 -0.191015 2.725736
  H 3.095243 -0.285902 3.571125
  C 3.084188 0.172355 -1.053923
  H 2.488077 0.304225 -1.944104
  C 4.485281 0.084672 -1.257420
  C 5.072106 0.152236 -2.459564
  H 6.138063 0.075974 -2.576767
  H 0.453749 0.352569 1.201645
  H 1.614750 -0.740632 0.070905
  H 0.431089 0.636446 -0.614860
  H 3.811376 0.912731 1.541146
  H 3.919611 -0.823019 1.366529
  H 1.808208 -1.090298 2.682512
  H 1.768755 0.660389 2.916813
  H 5.106232 -0.044517 -0.391440
  H 4.495290 0.274405 -3.361805
 19
 61.244176
  C 0.928011 0.291246 0.245248
  C 2.418398 0.085603 0.154087
  C 3.223264 -0.006821 1.442771
  C 2.416687 -0.191570 2.726496
  H 3.099073 -0.290053 3.566425
  C 3.079250 0.164567 -1.053983
  H 2.475886 0.299198 -1.949812
  C 4.491020 0.067721 -1.259260
  C 5.076776 0.145510 -2.459040
  H 6.142981 0.095325 -2.573552
  H 0.450475 0.375969 1.186847
  H 1.635882 -0.744066 0.096559
  H 0.408366 0.613726 -0.635791
  H 3.817495 0.910874 1.529838
  H 3.932057 -0.846644 1.355959
  H 1.802123 -1.093358 2.685460
  H 1.776907 0.665922 2.920565
  H 5.126560 -0.058848 -0.374395
  H 4.502684 0.288623 -3.356055
 19
 63.382162
  C 0.932388 0.304530 0.239733
  C 2.418823 0.079183 0.152041
  C 3.227519 -0.010698 1.446326
  C 2.417733 -0.197613 2.725693
  H 3.101568 -0.300092 3.574500
  C 3.083187 0.167549 -1.057666
  H 2.477342 0.303014 -1.957541
  C 4.492080 0.072390 -1.260680
  C 5.078531 0.147947 -2.461450
  H 6.136508 0.085685 -2.575844
  H 0.441718 0.387624 1.189773
  H 1.664738 -0.744602 0.103547
  H 0.416526 0.591761 -0.644617
  H 3.818448 0.905782 1.535140
  H 3.928256 -0.839176 1.360361
  H 1.802117 -1.097740 2.679680
  H 1.778375 0.661151 2.918638
  H 5.128383 -0.061917 -0.374387
  H 4.507785 0.278865 -3.355124
 19
 65.325235
  C 0.935774 0.318466 0.247743
  C 2.420139 0.072387 0.160971
  C 3.226231 -0.012737 1.446332
  C 2.418463 -0.200952 2.714825
  H 3.094358 -0.303628 3.558168
  C 3.087776 0.171994 -1.052852
  H 2.486439 0.304151 -1.943115
  C 4.490521 0.084826 -1.254556
  C 5.078666 0.153191 -2.454330
  H 6.170856 0.062351 -2.572650
  H 0.438124 0.389019 1.196825
  H 1.691572 -0.749444 0.117690
  H 0.414315 0.576787 -0.645314
  H 3.811222 0.901487 1.535868
  H 3.939708 -0.851553 1.359234
  H 1.805157 -1.098668 2.665005
  H 1.780542 0.653124 2.905673
  H 5.117729 -0.057076 -0.380154
  H 4.493199 0.265063 -3.371294
