 26
 0.000000
  H 1.402377 0.153907 0.437823
  C 2.481014 0.143527 0.410282
  C 3.248605 0.611002 1.570647
  C 2.417274 1.086873 2.754801
  H 3.063617 1.412376 3.562842
  C 3.064799 -0.324171 -0.753047
  C 4.441286 -0.411156 -0.971464
  C 5.122431 -0.864442 -2.102151
  C 4.615771 -1.384245 -3.399048
  C 3.124766 -1.499386 -3.687938
  C 2.912348 -2.061830 -5.091428
  O 6.436096 -0.859891 -2.091260
  H 3.908583 1.426899 1.252664
  H 3.909776 -0.196858 1.906074
  H 1.780187 0.285932 3.123173
  H 1.779113 1.919062 2.466149
  H 2.391041 -0.637063 -1.529759
  H 5.076952 -0.083722 -0.157266
  H 5.076411 -2.370866 -3.527935
  H 5.077254 -0.760379 -4.173712
  H 2.650336 -0.519033 -3.635665
  H 2.649601 -2.171901 -2.973210
  H 3.356441 -1.413371 -5.842886
  H 1.850445 -2.147588 -5.306569
  H 3.355825 -3.050087 -5.186883
  H 6.841726 -0.530133 -1.266386
 26
 -0.165428
  H 1.484896 -0.144627 0.622233
  C 2.553004 -0.031923 0.493435
  C 3.266375 0.687533 1.556736
  C 2.357906 1.190739 2.667932
  H 2.936452 1.700033 3.428817
  C 3.102629 -0.529724 -0.668360
  C 4.476117 -0.558082 -0.926310
  C 5.146104 -0.943506 -2.087788
  C 4.616138 -1.388167 -3.405638
  C 3.121147 -1.485423 -3.673735
  C 2.882566 -1.929381 -5.117781
  O 6.458556 -0.915377 -2.099003
  H 3.821272 1.528485 1.124099
  H 4.031679 0.030761 1.986023
  H 1.827543 0.367847 3.139212
  H 1.622159 1.889851 2.279474
  H 2.413785 -0.894033 -1.410750
  H 5.117517 -0.256331 -0.106201
  H 5.078040 -2.362031 -3.607663
  H 5.066417 -0.717116 -4.151970
  H 2.646094 -0.515856 -3.528250
  H 2.663535 -2.219097 -3.011849
  H 3.305977 -1.216086 -5.820385
  H 1.818443 -2.005926 -5.317991
  H 3.330435 -2.900932 -5.305839
  H 6.878037 -0.626608 -1.267066
 26
 0.664171
  H 1.541245 -0.354524 0.731809
  C 2.585670 -0.144748 0.548144
  C 3.253406 0.726458 1.524605
  C 2.326841 1.248090 2.612950
  H 2.876104 1.875350 3.310561
  C 3.130886 -0.639336 -0.616219
  C 4.499924 -0.638060 -0.896714
  C 5.159483 -0.988279 -2.074097
  C 4.617142 -1.383321 -3.401949
  C 3.116740 -1.467068 -3.658579
  C 2.862158 -1.854909 -5.116061
  O 6.472393 -0.961090 -2.096643
  H 3.730010 1.565837 1.002647
  H 4.082874 0.175677 1.989855
  H 1.880997 0.428421 3.171346
  H 1.525172 1.843491 2.185062
  H 2.430153 -0.969286 -1.365582
  H 5.147817 -0.370937 -0.069072
  H 5.074124 -2.347691 -3.643628
  H 5.061598 -0.684694 -4.126722
  H 2.644133 -0.498846 -3.470639
  H 2.662810 -2.228679 -3.018440
  H 3.281559 -1.116440 -5.795545
  H 1.796066 -1.920312 -5.308283
  H 3.304957 -2.820469 -5.345475
  H 6.899383 -0.709021 -1.256046
 26
 2.820581
  H 1.636399 -0.577787 0.858211
  C 2.634932 -0.248082 0.597488
  C 3.214682 0.794931 1.450375
  C 2.276303 1.286639 2.541771
  H 2.763166 2.050849 3.141842
  C 3.188258 -0.790232 -0.543609
  C 4.548451 -0.755983 -0.854324
  C 5.188038 -1.051784 -2.057269
  C 4.619877 -1.367920 -3.393787
  C 3.114827 -1.447801 -3.616272
  C 2.824634 -1.746974 -5.086010
  O 6.501905 -1.018733 -2.105885
  H 3.537222 1.634059 0.822864
  H 4.141755 0.415333 1.904225
  H 1.983041 0.473167 3.200317
  H 1.376315 1.719229 2.112875
  H 2.471635 -1.086378 -1.292401
  H 5.208637 -0.526008 -0.026024
  H 5.077806 -2.314009 -3.705318
  H 5.040040 -0.622448 -4.081200
  H 2.642495 -0.498639 -3.358091
  H 2.684879 -2.249722 -3.014239
  H 3.219664 -0.963613 -5.729333
  H 1.752936 -1.812033 -5.253873
  H 3.270405 -2.692503 -5.386050
  H 6.943572 -0.817865 -1.258494
 26
 5.876418
  H 1.737247 -0.752358 0.965922
  C 2.679508 -0.334829 0.630929
  C 3.165823 0.836558 1.369545
  C 2.224767 1.303900 2.470306
  H 2.640964 2.169668 2.979419
  C 3.255774 -0.924649 -0.476066
  C 4.604796 -0.851873 -0.817570
  C 5.220117 -1.090116 -2.042878
  C 4.620951 -1.370451 -3.376134
  C 3.110492 -1.406621 -3.567653
  C 2.780482 -1.651356 -5.040913
  O 6.531053 -1.017601 -2.126286
  H 3.354718 1.646194 0.660140
  H 4.151376 0.606262 1.795419
  H 2.068296 0.518188 3.209280
  H 1.257305 1.586259 2.060813
  H 2.522938 -1.193888 -1.224664
  H 5.279612 -0.659565 0.011172
  H 5.047575 -2.324627 -3.711675
  H 5.046650 -0.624538 -4.058883
  H 2.668491 -0.453711 -3.266911
  H 2.676648 -2.219537 -2.983644
  H 3.181588 -0.858918 -5.667226
  H 1.706257 -1.685829 -5.186795
  H 3.194850 -2.595334 -5.379865
  H 6.989662 -0.837177 -1.286941
 26
 10.692694
  H 1.782843 -0.812966 1.009665
  C 2.703461 -0.367841 0.645715
  C 3.127751 0.850011 1.343351
  C 2.197665 1.261203 2.474355
  H 2.579093 2.157243 2.969012
  C 3.293236 -0.969952 -0.448303
  C 4.634064 -0.856788 -0.814506
  C 5.235106 -1.076821 -2.049347
  C 4.622710 -1.359421 -3.377454
  C 3.107030 -1.346054 -3.561460
  C 2.758134 -1.664929 -5.012911
  O 6.544180 -0.996115 -2.149299
  H 3.220049 1.661051 0.612923
  H 4.146065 0.700043 1.727669
  H 2.115524 0.475747 3.215219
  H 1.199518 1.484895 2.097803
  H 2.524439 -1.113812 -1.201932
  H 5.318341 -0.669442 0.008572
  H 5.020085 -2.328069 -3.709905
  H 5.066203 -0.626147 -4.064713
  H 2.706731 -0.362060 -3.318177
  H 2.642567 -2.104071 -2.928720
  H 3.216368 -0.944713 -5.691633
  H 1.682316 -1.630102 -5.160454
  H 3.102131 -2.653580 -5.284518
  H 7.017548 -0.857953 -1.304766
 26
 19.627899
  H 2.066144 -1.018590 1.161341
  C 2.846382 -0.442962 0.682455
  C 2.997896 0.929070 1.189490
  C 2.018911 1.271110 2.302052
  H 2.138034 2.307231 2.596678
  C 3.525858 -1.077019 -0.342085
  C 4.831610 -0.998681 -0.788725
  C 5.347183 -1.201949 -2.062694
  C 4.647890 -1.309950 -3.365809
  C 3.124086 -1.264049 -3.422859
  C 2.648872 -1.451611 -4.863582
  O 6.655069 -1.252840 -2.226377
  H 2.869382 1.625491 0.355278
  H 4.035247 1.076050 1.526315
  H 2.188527 0.650429 3.174412
  H 0.990334 1.130748 1.973561
  H 2.656932 -1.232679 -0.993193
  H 5.558190 -0.858117 -0.005343
  H 4.978896 -2.264087 -3.796416
  H 5.074721 -0.542101 -4.024030
  H 2.769798 -0.292464 -3.072032
  H 2.696829 -2.065621 -2.810466
  H 2.989518 -0.637836 -5.492190
  H 1.566658 -1.478022 -4.904298
  H 3.024158 -2.380115 -5.277135
  H 7.163873 -1.332029 -1.395374
 26
 29.476894
  H 2.161696 -1.077709 1.248265
  C 2.809589 -0.462636 0.637926
  C 2.927858 0.944244 1.082991
  C 1.990342 1.276628 2.230214
  H 2.108989 2.318042 2.519061
  C 3.592073 -1.125075 -0.290806
  C 4.883028 -1.058883 -0.763417
  C 5.381286 -1.236944 -2.045669
  C 4.652657 -1.294839 -3.348807
  C 3.125384 -1.292378 -3.360090
  C 2.611146 -1.380571 -4.791696
  O 6.691168 -1.294302 -2.230022
  H 2.718251 1.608711 0.233794
  H 3.972342 1.134416 1.371094
  H 2.201595 0.662674 3.102397
  H 0.950316 1.129255 1.947113
  H 2.693478 -1.224290 -0.937192
  H 5.621469 -0.997507 0.022877
  H 5.003623 -2.206434 -3.856936
  H 5.026119 -0.460028 -3.956778
  H 2.752905 -0.366134 -2.920984
  H 2.744250 -2.151753 -2.809364
  H 2.952301 -0.535650 -5.378443
  H 1.522314 -1.384010 -4.806943
  H 2.959823 -2.293716 -5.276199
  H 7.214614 -1.289034 -1.407192
 26
 39.755859
  H 2.116322 -1.073007 1.098780
  C 2.889827 -0.470362 0.629517
  C 2.969786 0.925896 1.151597
  C 1.837950 1.243316 2.106038
  H 1.937973 2.264648 2.470365
  C 3.738297 -1.083278 -0.276867
  C 5.001569 -1.088392 -0.792404
  C 5.440611 -1.264563 -2.103422
  C 4.648718 -1.340646 -3.359844
  C 3.136541 -1.279812 -3.273530
  C 2.526776 -1.363065 -4.666124
  O 6.744171 -1.274520 -2.360999
  H 2.955630 1.629971 0.323034
  H 3.934750 1.049456 1.643692
  H 1.853088 0.581143 2.961008
  H 0.864704 1.154248 1.607738
  H 2.736420 -0.897533 -0.842767
  H 5.760420 -1.072976 -0.028755
  H 4.943074 -2.263084 -3.862156
  H 5.005743 -0.532844 -4.007011
  H 2.826656 -0.322496 -2.818194
  H 2.763903 -2.122499 -2.684263
  H 2.870655 -0.534646 -5.292828
  H 1.440927 -1.318500 -4.609006
  H 2.799938 -2.285390 -5.148121
  H 7.301584 -1.189021 -1.562099
 26
 43.904926
  H 2.288788 -1.175093 1.144859
  C 2.927699 -0.508045 0.567804
  C 2.816430 0.953228 0.948341
  C 1.740985 1.174939 2.005710
  H 1.692936 2.228269 2.271300
  C 3.909664 -1.021768 -0.227425
  C 5.123343 -1.115899 -0.802727
  C 5.528168 -1.318818 -2.112082
  C 4.678467 -1.343838 -3.339729
  C 3.177440 -1.152361 -3.163206
  C 2.466883 -1.209036 -4.512700
  O 6.826484 -1.478970 -2.404649
  H 2.591045 1.554879 0.068323
  H 3.786794 1.287124 1.322051
  H 1.960611 0.612964 2.907673
  H 0.762055 0.877729 1.638481
  H 2.687181 -0.809907 -0.634832
  H 5.899119 -1.129159 -0.039768
  H 4.868151 -2.298115 -3.844020
  H 5.067685 -0.576021 -4.018012
  H 2.982697 -0.176040 -2.714898
  H 2.778461 -1.948335 -2.532296
  H 2.831451 -0.427864 -5.175637
  H 1.395140 -1.073393 -4.386403
  H 2.631570 -2.169033 -4.996862
  H 7.404799 -1.474113 -1.624526
 26
 41.887689
  H 2.307730 -1.183402 1.118669
  C 2.864447 -0.494646 0.482658
  C 2.765333 0.977167 0.896464
  C 1.773618 1.154721 2.040299
  H 1.723251 2.201412 2.329761
  C 3.913295 -0.965589 -0.264654
  C 5.109059 -1.099514 -0.834128
  C 5.548129 -1.333853 -2.128201
  C 4.707216 -1.360972 -3.360396
  C 3.211534 -1.142081 -3.174207
  C 2.485608 -1.201963 -4.517790
  O 6.848057 -1.513512 -2.394505
  H 2.454385 1.586950 0.047511
  H 3.750484 1.326894 1.202688
  H 2.077342 0.581315 2.911681
  H 0.776894 0.841321 1.746588
  H 2.415068 -0.679732 -0.566213
  H 5.864393 -1.098409 -0.045136
  H 4.880779 -2.324492 -3.852341
  H 5.108486 -0.607122 -4.048608
  H 3.040102 -0.159779 -2.732384
  H 2.807078 -1.923755 -2.526819
  H 2.857384 -0.433758 -5.193777
  H 1.417951 -1.046580 -4.383311
  H 2.629075 -2.170170 -4.992516
  H 7.416747 -1.505334 -1.607563
 26
 38.238444
  H 2.385926 -1.184274 1.134703
  C 2.796587 -0.488501 0.398822
  C 2.697566 0.990547 0.826240
  C 1.795918 1.138071 2.044455
  H 1.738996 2.182712 2.339729
  C 3.913920 -0.920834 -0.290626
  C 5.108411 -1.088026 -0.830280
  C 5.565598 -1.349071 -2.118872
  C 4.722015 -1.369152 -3.346043
  C 3.234606 -1.120980 -3.142170
  C 2.490554 -1.158885 -4.474050
  O 6.859119 -1.557457 -2.369842
  H 2.300632 1.586921 0.005653
  H 3.692996 1.369910 1.057072
  H 2.183712 0.573203 2.888687
  H 0.786909 0.795740 1.828542
  H 2.163090 -0.668898 -0.503441
  H 5.863008 -1.074548 -0.037345
  H 4.874314 -2.338998 -3.831683
  H 5.130707 -0.627150 -4.041539
  H 3.090323 -0.138972 -2.689326
  H 2.824826 -1.894461 -2.491526
  H 2.869246 -0.396307 -5.150439
  H 1.428797 -0.981178 -4.324554
  H 2.606895 -2.127409 -4.954214
  H 7.427569 -1.555018 -1.582101
 26
 34.568140
  H 2.500018 -1.179793 1.195414
  C 2.734891 -0.547967 0.331312
  C 2.663190 0.954387 0.696566
  C 1.794015 1.166565 1.928608
  H 1.747306 2.225194 2.171938
  C 3.923951 -0.946209 -0.291465
  C 5.132389 -1.123355 -0.786715
  C 5.579766 -1.339646 -2.107433
  C 4.712352 -1.319115 -3.309924
  C 3.228355 -1.087313 -3.066964
  C 2.459204 -1.066532 -4.385271
  O 6.852168 -1.535021 -2.369647
  H 2.245727 1.509072 -0.142885
  H 3.665290 1.339817 0.885011
  H 2.201170 0.643514 2.790508
  H 0.779311 0.816572 1.755248
  H 1.943735 -0.780838 -0.395592
  H 5.913817 -1.151918 -0.017556
  H 4.860332 -2.267738 -3.836763
  H 5.104164 -0.550103 -3.985618
  H 3.089505 -0.130283 -2.562326
  H 2.834320 -1.889253 -2.442248
  H 2.821685 -0.271670 -5.032490
  H 1.400363 -0.900208 -4.206898
  H 2.568428 -2.011364 -4.911842
  H 7.440422 -1.547612 -1.592341
 26
 34.281291
  H 2.786378 -1.091917 1.447382
  C 2.887672 -0.598196 0.471496
  C 2.631394 0.919662 0.580808
  C 1.634942 1.208973 1.694203
  H 1.461680 2.279840 1.767967
  C 4.043047 -1.007035 -0.199911
  C 5.204188 -1.217006 -0.778913
  C 5.596417 -1.321243 -2.127758
  C 4.671778 -1.252960 -3.286515
  C 3.206464 -0.997386 -2.966034
  C 2.379161 -0.905613 -4.245182
  O 6.843092 -1.582565 -2.457616
  H 2.240521 1.295665 -0.364520
  H 3.569264 1.437852 0.782075
  H 2.009719 0.864456 2.654758
  H 0.680171 0.726376 1.500239
  H 2.109125 -1.031722 -0.172290
  H 5.992384 -1.427685 -0.047398
  H 4.773027 -2.181176 -3.860400
  H 5.050948 -0.463470 -3.944726
  H 3.110104 -0.060672 -2.416712
  H 2.824115 -1.818575 -2.358338
  H 2.729459 -0.091464 -4.875202
  H 1.333175 -0.725570 -4.011561
  H 2.444244 -1.829552 -4.814838
  H 7.476156 -1.590918 -1.716687
 26
 31.996401
  H 3.036458 -0.956374 1.602295
  C 2.939108 -0.698499 0.534936
  C 2.617922 0.810101 0.424453
  C 1.590823 1.211137 1.474270
  H 1.350713 2.267891 1.376454
  C 4.082183 -1.128139 -0.155244
  C 5.234078 -1.343057 -0.745921
  C 5.614509 -1.308318 -2.111701
  C 4.666833 -1.166425 -3.240914
  C 3.214844 -0.902428 -2.873406
  C 2.347980 -0.779054 -4.122814
  O 6.841377 -1.586255 -2.476701
  H 2.221993 1.026551 -0.567785
  H 3.530285 1.390341 0.560876
  H 1.971537 1.046750 2.479395
  H 0.669850 0.644182 1.355715
  H 2.083780 -1.285862 0.187828
  H 6.020556 -1.712256 -0.080422
  H 4.741448 -2.068355 -3.859923
  H 5.043592 -0.354353 -3.872738
  H 3.146727 0.023292 -2.303444
  H 2.841920 -1.727242 -2.264076
  H 2.681573 0.047770 -4.745516
  H 1.311248 -0.599842 -3.850908
  H 2.389108 -1.690445 -4.714123
  H 7.498182 -1.623014 -1.756259
