 14
 0.000000
  H -0.979667 -2.291839 -0.587612
  C -1.764673 -1.577070 -0.359981
  H -2.342446 -1.914534 0.494945
  C -1.198018 -0.221423 -0.079982
  O 0.001258 -0.018243 -0.010969
  C -2.186377 0.889168 0.117559
  H -2.431246 -1.499167 -1.217206
  H -3.200055 0.569722 -0.101587
  H -1.926557 1.722140 -0.531836
  H -2.134234 1.230245 1.149241
  O 3.250735 0.166036 0.056599
  H 3.430348 1.128356 0.110551
  H 2.286480 -0.005054 0.000018
  H 3.648616 -0.315718 0.812208
 14
 -0.424711
  H -0.983696 -2.300339 -0.589801
  C -1.763432 -1.578641 -0.369386
  H -2.342131 -1.913367 0.489453
  C -1.178973 -0.234758 -0.082221
  O 0.025979 -0.051036 -0.018913
  C -2.153456 0.887535 0.120733
  H -2.441670 -1.508047 -1.213362
  H -3.169775 0.587456 -0.109162
  H -1.874292 1.735944 -0.505195
  H -2.107693 1.221305 1.158643
  O 3.218075 0.170868 0.055006
  H 3.374187 1.137195 0.075207
  H 2.252968 -0.018110 0.000937
  H 3.596187 -0.273090 0.844534
 14
 -1.666383
  H -0.934462 -2.297536 -0.585492
  C -1.711275 -1.569452 -0.371166
  H -2.291907 -1.897933 0.488491
  C -1.129050 -0.224885 -0.083048
  O 0.073737 -0.038473 -0.015253
  C -2.106209 0.890774 0.126313
  H -2.391936 -1.498788 -1.216085
  H -3.123585 0.585856 -0.089947
  H -1.833194 1.738062 -0.497781
  H -2.045756 1.224825 1.160537
  O 3.090751 0.146168 0.048945
  H 3.253978 1.112571 0.047256
  H 2.122090 -0.025645 -0.000306
  H 3.462406 -0.274335 0.852617
 14
 -2.892951
  H -0.885600 -2.296954 -0.563955
  C -1.662090 -1.560691 -0.369701
  H -2.259436 -1.877920 0.485766
  C -1.083278 -0.214857 -0.083938
  O 0.118390 -0.020814 -0.014793
  C -2.065386 0.893866 0.133154
  H -2.329565 -1.493253 -1.222705
  H -3.081101 0.585137 -0.082449
  H -1.794582 1.746438 -0.482371
  H -2.000209 1.218607 1.170267
  O 2.970820 0.120034 0.039286
  H 3.153419 1.082520 0.011864
  H 1.991458 -0.023309 -0.002421
  H 3.330026 -0.279272 0.858119
 14
 -3.815984
  H -0.781898 -2.254984 -0.535837
  C -1.579317 -1.534903 -0.358304
  H -2.183955 -1.861439 0.482857
  C -1.042681 -0.174199 -0.068104
  O 0.152219 0.052649 0.012148
  C -2.054239 0.910193 0.141301
  H -2.232754 -1.489838 -1.223683
  H -3.062189 0.577399 -0.081465
  H -1.801913 1.770489 -0.471584
  H -2.005629 1.237868 1.175935
  O 2.843444 0.052692 0.016133
  H 3.059227 1.007712 -0.024006
  H 1.851907 -0.052124 -0.009562
  H 3.198579 -0.355241 0.832062
 14
 -4.241687
  H -0.516235 -2.077698 -0.477662
  C -1.388316 -1.446300 -0.334440
  H -1.992745 -1.837153 0.482364
  C -1.016743 -0.037500 -0.028281
  O 0.145478 0.322807 0.090106
  C -2.141889 0.926998 0.149199
  H -2.008903 -1.470516 -1.227472
  H -3.100642 0.488940 -0.104171
  H -1.963913 1.814323 -0.455215
  H -2.160068 1.256348 1.187438
  O 2.688737 -0.163649 -0.027217
  H 3.070781 0.724174 -0.178376
  H 1.679283 -0.070191 0.010085
  H 3.016662 -0.545183 0.811594
 14
 -4.545146
  H -0.256920 -1.890728 -0.429783
  C -1.192218 -1.353247 -0.311271
  H -1.782470 -1.812462 0.480197
  C -0.986601 0.083806 0.012586
  O 0.129452 0.567193 0.167275
  C -2.211501 0.922844 0.149577
  H -1.777390 -1.434132 -1.226644
  H -3.110736 0.387373 -0.132824
  H -2.107218 1.824015 -0.451428
  H -2.298129 1.252828 1.186326
  O 2.498451 -0.352037 -0.055331
  H 3.011090 0.436325 -0.324257
  H 1.509282 -0.065335 0.041812
  H 2.834168 -0.700824 0.794370
 14
 -4.040291
  H -0.079704 -1.774802 -0.418344
  C -1.048207 -1.298112 -0.299745
  H -1.613885 -1.800258 0.483579
  C -0.944757 0.142701 0.029344
  O 0.135094 0.706527 0.204469
  C -2.214673 0.905539 0.148536
  H -1.624783 -1.415254 -1.215475
  H -3.078247 0.318650 -0.142419
  H -2.156210 1.812055 -0.451362
  H -2.332888 1.233249 1.181424
  O 2.308477 -0.461996 -0.070151
  H 2.903988 0.234413 -0.404188
  H 1.322280 -0.006113 0.060927
  H 2.649971 -0.802168 0.777860
 14
 -2.792507
  H -0.050868 -1.771738 -0.414326
  C -1.028168 -1.311493 -0.301806
  H -1.590967 -1.822513 0.477858
  C -0.945376 0.121208 0.022774
  O 0.139034 0.701540 0.198666
  C -2.202521 0.889112 0.142225
  H -1.602473 -1.443566 -1.218727
  H -3.070376 0.307458 -0.146087
  H -2.139199 1.797728 -0.455101
  H -2.317596 1.221964 1.174689
  O 2.300766 -0.477316 -0.068868
  H 2.908536 0.195982 -0.406967
  H 1.159626 0.071604 0.076450
  H 2.653317 -0.823221 0.764346
 14
 -3.194264
  H 0.002718 -1.730082 -0.423708
  C -0.992050 -1.308546 -0.305509
  H -1.528889 -1.838074 0.482412
  C -0.963081 0.119769 0.005249
  O 0.111293 0.748734 0.168569
  C -2.224881 0.860419 0.135209
  H -1.574721 -1.475605 -1.211076
  H -3.086688 0.262835 -0.137242
  H -2.184804 1.770902 -0.461569
  H -2.332016 1.200794 1.166627
  O 2.322991 -0.512541 -0.048083
  H 2.986349 0.092826 -0.397152
  H 1.000010 0.191120 0.065706
  H 2.683736 -0.908103 0.753660
