 20
 0.000000
  C 1.007100 -0.072226 0.046269
  C 2.503100 -0.082977 0.025163
  C 3.219895 -0.595290 -0.980596
  C 4.657326 -0.605287 -1.000218
  C 5.378562 -1.120149 -2.010975
  C 6.816654 -1.129830 -2.029979
  C 7.533645 -1.642052 -3.035564
  C 9.023584 -1.662243 -3.075196
  H 0.646962 0.394089 0.961718
  H 0.611656 -1.087027 0.007976
  H 0.611657 0.493462 -0.797107
  H 3.002808 0.352616 0.880309
  H 2.709881 -1.029014 -1.832059
  H 5.160867 -0.170173 -0.146022
  H 4.874968 -1.555223 -2.865099
  H 7.324105 -0.695558 -1.177432
  H 7.033724 -2.078035 -3.891456
  H 9.458598 -1.209320 -2.186038
  H 9.382153 -1.116551 -3.949362
  H 9.382152 -2.690191 -3.147781
 20
 0.267095
  C 1.032313 -0.158003 0.152923
  C 2.519842 -0.081944 0.015220
  C 3.198982 -0.524365 -1.047703
  C 4.628671 -0.470579 -1.147811
  C 5.349365 -1.010614 -2.147070
  C 6.783634 -1.010198 -2.156270
  C 7.545887 -1.679824 -3.024399
  C 9.033423 -1.738439 -2.974559
  H 0.712121 0.206830 1.124960
  H 0.687115 -1.186449 0.038998
  H 0.543767 0.437966 -0.618735
  H 3.062388 0.357115 0.842442
  H 2.666038 -0.974431 -1.878106
  H 5.145037 0.016492 -0.330066
  H 4.848980 -1.510881 -2.964447
  H 7.252524 -0.473088 -1.340049
  H 7.081857 -2.219194 -3.840814
  H 9.420198 -1.165406 -2.135617
  H 9.461171 -1.344798 -3.896753
  H 9.365220 -2.771994 -2.877214
 20
 1.870439
  C 1.179230 -0.118320 0.410020
  C 2.634337 -0.099599 0.074540
  C 3.164787 -0.427712 -1.108874
  C 4.584789 -0.434805 -1.313446
  C 5.255953 -0.931732 -2.368862
  C 6.687574 -1.015624 -2.328378
  C 7.499688 -1.684126 -3.148152
  C 8.964550 -1.846760 -2.933846
  H 1.037850 0.056772 1.472040
  H 0.731799 -1.077304 0.153808
  H 0.645235 0.652187 -0.144892
  H 3.301727 0.195449 0.875683
  H 2.531550 -0.744874 -1.928201
  H 5.163789 -0.050402 -0.481797
  H 4.734833 -1.345229 -3.222417
  H 7.125847 -0.570172 -1.439437
  H 7.105233 -2.139368 -4.047604
  H 9.285399 -1.351060 -2.020070
  H 9.522735 -1.431207 -3.774502
  H 9.216790 -2.906052 -2.866307
 20
 4.648332
  C 1.214383 -0.079827 0.413945
  C 2.618441 -0.064385 -0.096489
  C 3.070463 -0.608024 -1.231134
  C 4.473943 -0.557634 -1.526441
  C 5.189744 -1.198858 -2.471113
  C 6.615593 -1.094970 -2.396634
  C 7.601806 -1.721824 -3.035635
  C 9.038272 -1.600509 -2.676291
  H 1.202093 0.233971 1.453012
  H 0.783694 -1.078178 0.345004
  H 0.579588 0.594606 -0.166449
  H 3.335661 0.431428 0.544716
  H 2.407293 -1.132292 -1.910071
  H 5.037173 0.045238 -0.818663
  H 4.731958 -1.826775 -3.219908
  H 6.934064 -0.461956 -1.570017
  H 7.386979 -2.359939 -3.884633
  H 9.176967 -0.935978 -1.821842
  H 9.610866 -1.214575 -3.519097
  H 9.442094 -2.578320 -2.428901
 20
 9.167543
  C 1.317524 -0.008581 0.503477
  C 2.613940 -0.102601 -0.217752
  C 2.977512 -0.669163 -1.371414
  C 4.381456 -0.657100 -1.650235
  C 5.163321 -1.282570 -2.540758
  C 6.574550 -1.151491 -2.324493
  C 7.609555 -1.680373 -2.977461
  C 9.031705 -1.512505 -2.571565
  H 1.587658 0.394170 1.471610
  H 0.853777 -0.985519 0.637160
  H 0.614114 0.651350 -0.004700
  H 3.416845 0.366731 0.334687
  H 2.291264 -1.189663 -2.019192
  H 4.926053 -0.058896 -0.922993
  H 4.793232 -1.909239 -3.340096
  H 6.810454 -0.568564 -1.438665
  H 7.445181 -2.275613 -3.870599
  H 9.114691 -0.903325 -1.675237
  H 9.600853 -1.040160 -3.371726
  H 9.486465 -2.487682 -2.378626
 20
 13.504283
  C 1.324584 0.030916 0.531434
  C 2.586567 -0.123659 -0.251447
  C 2.947694 -0.702851 -1.395075
  C 4.377223 -0.686282 -1.643167
  C 5.176755 -1.307307 -2.511230
  C 6.589660 -1.166781 -2.271402
  C 7.635738 -1.662813 -2.950246
  C 9.059384 -1.483297 -2.569328
  H 1.692286 0.451303 1.453252
  H 0.845077 -0.924210 0.738874
  H 0.613540 0.701821 0.047391
  H 3.429197 0.372451 0.299993
  H 2.273032 -1.235356 -2.047092
  H 4.900849 -0.097747 -0.924340
  H 4.804632 -1.945021 -3.317568
  H 6.781412 -0.597784 -1.366091
  H 7.457945 -2.252490 -3.854186
  H 9.140120 -0.885341 -1.652567
  H 9.609916 -0.982375 -3.376492
  H 9.534580 -2.449396 -2.408112
 20
 14.933621
  C 1.455786 0.051450 0.603953
  C 2.642224 -0.078009 -0.289727
  C 2.918961 -0.725230 -1.428048
  C 4.316738 -0.707277 -1.769456
  C 5.132781 -1.401918 -2.581903
  C 6.529617 -1.205736 -2.316283
  C 7.626944 -1.622239 -2.950516
  C 9.015887 -1.418515 -2.449484
  H 1.914358 0.440640 1.512828
  H 0.975930 -0.908370 0.810076
  H 0.716856 0.744226 0.212192
  H 3.493888 0.449833 0.139574
  H 2.212572 -1.326448 -1.973276
  H 4.852272 -0.012419 -1.128593
  H 4.811046 -2.129056 -3.313100
  H 6.706227 -0.645956 -1.402328
  H 7.540738 -2.198468 -3.865400
  H 9.019090 -0.843836 -1.525676
  H 9.617926 -0.893904 -3.193029
  H 9.493331 -2.379538 -2.271904
 20
 17.515188
  C 1.521700 0.035331 0.648135
  C 2.651944 -0.026630 -0.323245
  C 2.911580 -0.716809 -1.442513
  C 4.301163 -0.678252 -1.828681
  C 5.134784 -1.470483 -2.528893
  C 6.530084 -1.232480 -2.269749
  C 7.631744 -1.658687 -2.886866
  C 9.018529 -1.374591 -2.424453
  H 2.043900 0.333565 1.555820
  H 1.031709 -0.927460 0.800000
  H 0.773060 0.771529 0.357367
  H 3.464829 0.617637 0.008935
  H 2.221881 -1.405512 -1.899827
  H 4.817495 0.132937 -1.320717
  H 4.829434 -2.284933 -3.168216
  H 6.684475 -0.619498 -1.388039
  H 7.553573 -2.242739 -3.800102
  H 9.012554 -0.772108 -1.519332
  H 9.574811 -0.844383 -3.195385
  H 9.547707 -2.308243 -2.224034
 20
 17.335579
  C 1.597486 -0.030506 0.695525
  C 2.659308 0.021785 -0.351945
  C 2.918332 -0.709455 -1.446902
  C 4.277617 -0.601461 -1.924379
  C 5.139513 -1.479879 -2.471723
  C 6.536262 -1.190858 -2.261456
  C 7.640416 -1.673598 -2.827520
  C 9.022351 -1.338652 -2.391476
  H 2.170465 0.181339 1.602264
  H 1.125452 -1.008145 0.781573
  H 0.828543 0.732093 0.532826
  H 3.400591 0.773758 -0.101356
  H 2.263313 -1.489798 -1.812337
  H 4.747502 0.326951 -1.596395
  H 4.849784 -2.405917 -2.934375
  H 6.684628 -0.483538 -1.447087
  H 7.566281 -2.363974 -3.663150
  H 9.011624 -0.650347 -1.557700
  H 9.581017 -0.891787 -3.208074
  H 9.554195 -2.255664 -2.091724
 20
 19.778706
  C 1.988738 -0.331486 0.726150
  C 2.576542 0.167348 -0.548317
  C 2.899126 -0.613046 -1.590350
  C 4.126461 -0.312497 -2.293013
  C 5.095267 -1.242615 -2.447428
  C 6.483133 -0.926026 -2.287531
  C 7.519420 -1.724230 -2.534055
  C 8.937084 -1.408270 -2.173113
  H 2.773451 -0.139611 1.459873
  H 1.827541 -1.409790 0.677118
  H 1.061646 0.159205 1.029004
  H 2.966694 1.177860 -0.508059
  H 2.529212 -1.633401 -1.642417
  H 4.398000 0.734731 -2.340725
  H 4.829322 -2.290236 -2.461959
  H 6.662700 0.028423 -1.812933
  H 7.365945 -2.656616 -3.059991
  H 9.011945 -0.438367 -1.693907
  H 9.572841 -1.413478 -3.059682
  H 9.320480 -2.161293 -1.494526
 20
 27.079442
  C 2.210322 -0.461293 0.756964
  C 2.714565 0.145670 -0.494127
  C 2.863421 -0.484719 -1.655517
  C 4.095575 -0.160495 -2.358850
  C 5.044779 -1.089550 -2.612427
  C 6.439816 -0.872417 -2.299526
  C 7.473314 -1.662392 -2.572345
  C 8.834427 -1.509357 -1.981642
  H 3.064697 -0.355706 1.440899
  H 2.013183 -1.523147 0.633543
  H 1.332857 0.020311 1.176815
  H 3.239515 1.091850 -0.350918
  H 2.384291 -1.446188 -1.834674
  H 4.403841 0.856271 -2.250237
  H 4.742491 -2.133839 -2.736548
  H 6.606358 -0.046297 -1.624430
  H 7.345903 -2.487204 -3.277545
  H 8.856328 -0.669424 -1.299875
  H 9.582033 -1.349053 -2.746600
  H 9.104253 -2.412056 -1.452439
