 19
 0.000000
  C 1.044128 -2.333485 -0.245677
  C -0.366870 -2.794440 -0.026951
  C -0.572999 -3.564181 1.255849
  C -1.501440 -1.676014 -0.001540
  C -1.014102 -0.275945 0.017432
  O -2.640022 -2.006400 0.032430
  H 1.682891 -3.219879 -0.344670
  H 1.445906 -1.790431 0.612583
  H 1.153734 -1.775307 -1.171584
  H -0.711247 -3.370761 -0.898681
  H -0.315359 -2.977180 2.138500
  H 0.105231 -4.418994 1.257677
  H -1.596066 -3.914026 1.354018
  H 0.059148 -0.170160 -0.067726
  H -1.364196 0.161714 0.955484
  H -1.525764 0.255436 -0.789050
  O 3.477184 -0.044500 0.014537
  H 3.704871 0.141678 -0.899310
  H 2.522675 0.036329 0.100683
 19
 1.445522
  C 1.054957 -2.414798 -0.253005
  C -0.354636 -2.826834 -0.036138
  C -0.589357 -3.564865 1.254188
  C -1.420651 -1.648157 -0.009536
  C -0.865603 -0.274497 0.015986
  O -2.577137 -1.917503 0.026261
  H 1.684864 -3.299466 -0.337723
  H 1.425092 -1.859134 0.602866
  H 1.175081 -1.869270 -1.180451
  H -0.728751 -3.396942 -0.894923
  H -0.300056 -2.981348 2.126614
  H 0.049379 -4.449257 1.261576
  H -1.626290 -3.868680 1.359795
  H 0.229874 -0.196134 -0.087889
  H -1.189333 0.169590 0.958441
  H -1.365424 0.280308 -0.778502
  O 3.233342 0.040719 0.027472
  H 3.474403 0.281402 -0.873604
  H 2.279662 0.069643 0.095423
 19
 2.191123
  C 1.100756 -2.498736 -0.255371
  C -0.339151 -2.847693 -0.043046
  C -0.613023 -3.571906 1.257018
  C -1.349741 -1.612526 -0.012832
  C -0.741542 -0.263730 0.005835
  O -2.515028 -1.829351 0.033851
  H 1.694424 -3.410716 -0.330711
  H 1.489557 -1.947804 0.604028
  H 1.253048 -1.962161 -1.191032
  H -0.744952 -3.398310 -0.901462
  H -0.291716 -3.001010 2.129114
  H -0.019778 -4.491588 1.266294
  H -1.667396 -3.822766 1.365028
  H 0.331804 -0.204220 -0.146347
  H -1.009894 0.181464 0.966894
  H -1.256839 0.317751 -0.760924
  O 2.996424 0.101903 0.032073
  H 3.254138 0.426140 -0.838294
  H 2.021534 0.099391 0.082440
 19
 4.267226
  C 1.121663 -2.551503 -0.249241
  C -0.322462 -2.850339 -0.040821
  C -0.622701 -3.569393 1.254925
  C -1.297994 -1.593859 -0.017277
  C -0.651367 -0.258525 -0.003420
  O -2.471076 -1.783027 0.028742
  H 1.679700 -3.485836 -0.323481
  H 1.536982 -2.022422 0.607118
  H 1.299519 -2.020098 -1.187485
  H -0.740967 -3.387013 -0.903821
  H -0.288685 -3.010766 2.128225
  H -0.060338 -4.506244 1.265289
  H -1.675119 -3.784029 1.357210
  H 0.431053 -0.228349 -0.180988
  H -0.880676 0.184107 0.971188
  H -1.168438 0.345228 -0.751472
  O 2.810253 0.126643 0.028902
  H 3.065982 0.525453 -0.809724
  H 1.831567 0.101482 0.074007
 19
 8.167132
  C 1.150259 -2.600521 -0.242997
  C -0.304432 -2.849008 -0.039451
  C -0.633235 -3.563678 1.254224
  C -1.257391 -1.577225 -0.028324
  C -0.583586 -0.255316 -0.000413
  O -2.434649 -1.746016 -0.000006
  H 1.665756 -3.565052 -0.319299
  H 1.605600 -2.097461 0.609572
  H 1.354833 -2.081199 -1.174443
  H -0.726856 -3.374367 -0.907329
  H -0.291607 -3.014506 2.129120
  H -0.098055 -4.512746 1.268476
  H -1.698836 -3.750772 1.349340
  H 0.509074 -0.253059 -0.175915
  H -0.793733 0.172563 0.984322
  H -1.088084 0.375480 -0.736754
  O 2.662525 0.149727 0.001065
  H 2.891133 0.621735 -0.807143
  H 1.676750 0.106745 0.071279
 19
 14.789522
  C 1.165185 -2.632219 -0.233069
  C -0.291803 -2.852139 -0.038472
  C -0.641936 -3.560178 1.253436
  C -1.229584 -1.571393 -0.039293
  C -0.541465 -0.257976 0.011925
  O -2.408929 -1.729091 -0.038251
  H 1.654950 -3.611921 -0.319050
  H 1.637080 -2.153696 0.622279
  H 1.388858 -2.109429 -1.157228
  H -0.712571 -3.372318 -0.908814
  H -0.297722 -3.013860 2.131131
  H -0.122257 -4.519324 1.273098
  H -1.709785 -3.729764 1.340471
  H 0.575622 -0.262419 -0.150335
  H -0.753615 0.156628 0.999643
  H -1.029091 0.387345 -0.721019
  O 2.579589 0.162788 -0.036444
  H 2.778149 0.686098 -0.820285
  H 1.575305 0.107677 0.066395
 19
 22.766246
  C 1.181083 -2.658574 -0.217902
  C -0.282024 -2.858413 -0.036183
  C -0.651967 -3.560828 1.251597
  C -1.209864 -1.568586 -0.046357
  C -0.519325 -0.262841 0.028817
  O -2.389505 -1.720808 -0.072397
  H 1.648506 -3.645203 -0.317155
  H 1.660784 -2.203772 0.643727
  H 1.423508 -2.126876 -1.133908
  H -0.699030 -3.372561 -0.908937
  H -0.307120 -3.018104 2.132086
  H -0.144147 -4.526603 1.275128
  H -1.723437 -3.718228 1.329903
  H 0.623953 -0.255674 -0.117261
  H -0.742075 0.140800 1.021090
  H -0.995270 0.393588 -0.707076
  O 2.535273 0.180982 -0.075748
  H 2.705734 0.727092 -0.849399
  H 1.510103 0.111416 0.055364
 19
 30.680947
  C 1.188780 -2.678888 -0.196720
  C -0.275919 -2.867287 -0.030465
  C -0.660143 -3.570515 1.248942
  C -1.199224 -1.571628 -0.047815
  C -0.502502 -0.259675 0.039574
  O -2.377136 -1.722282 -0.090089
  H 1.645709 -3.674321 -0.309221
  H 1.666832 -2.246327 0.673041
  H 1.447811 -2.136053 -1.102986
  H -0.689568 -3.377970 -0.910152
  H -0.318009 -3.031686 2.134814
  H -0.158588 -4.540228 1.272006
  H -1.735252 -3.722073 1.317981
  H 0.656447 -0.240232 -0.101615
  H -0.727949 0.140604 1.033062
  H -0.968211 0.397965 -0.695499
  O 2.509108 0.206548 -0.104490
  H 2.660108 0.758394 -0.876436
  H 1.467659 0.118128 0.039118
 19
 38.153977
  C 1.194713 -2.692181 -0.184110
  C -0.270645 -2.872037 -0.027507
  C -0.669385 -3.580263 1.253096
  C -1.188444 -1.580785 -0.051502
  C -0.496103 -0.254662 0.049732
  O -2.363927 -1.742116 -0.110139
  H 1.640422 -3.685987 -0.307554
  H 1.678153 -2.275271 0.696890
  H 1.463683 -2.142593 -1.083559
  H -0.674590 -3.374682 -0.900184
  H -0.332454 -3.045858 2.143722
  H -0.172888 -4.550406 1.277526
  H -1.743372 -3.728039 1.314017
  H 0.678939 -0.219612 -0.082456
  H -0.728671 0.137114 1.037123
  H -0.958802 0.406892 -0.689411
  O 2.496192 0.215733 -0.123781
  H 2.633542 0.783222 -0.888684
  H 1.445266 0.103575 0.018795
 19
 47.055052
  C 1.206190 -2.693669 -0.166873
  C -0.262378 -2.867850 -0.020724
  C -0.664388 -3.568367 1.249873
  C -1.182855 -1.577545 -0.052596
  C -0.511847 -0.265636 0.059574
  O -2.361421 -1.736926 -0.126650
  H 1.651948 -3.695395 -0.300020
  H 1.683297 -2.290433 0.719153
  H 1.484180 -2.137718 -1.061286
  H -0.668623 -3.384044 -0.911057
  H -0.331453 -3.030509 2.140875
  H -0.166237 -4.541338 1.277888
  H -1.741839 -3.715502 1.304723
  H 0.684695 -0.220823 -0.068009
  H -0.749537 0.121881 1.058348
  H -0.967112 0.394037 -0.676457
  O 2.490895 0.196679 -0.134042
  H 2.621730 0.780912 -0.886595
  H 1.412650 0.057799 -0.001575
 19
 58.503224
  C 1.205636 -2.691226 -0.158778
  C -0.258871 -2.870711 -0.019626
  C -0.659997 -3.574392 1.256384
  C -1.194326 -1.583293 -0.055782
  C -0.545384 -0.267076 0.067393
  O -2.371265 -1.747673 -0.141891
  H 1.650708 -3.685944 -0.291247
  H 1.682985 -2.284372 0.736406
  H 1.486414 -2.134967 -1.052957
  H -0.655754 -3.395751 -0.909012
  H -0.335540 -3.032168 2.144749
  H -0.154721 -4.541128 1.289103
  H -1.734048 -3.730602 1.308435
  H 0.699260 -0.212265 -0.057369
  H -0.781007 0.112425 1.064585
  H -0.995673 0.397295 -0.674469
  O 2.528847 0.182120 -0.135346
  H 2.658270 0.774155 -0.882030
  H 1.394512 0.028255 -0.010642
 19
 71.374962
  C 1.207465 -2.682705 -0.154206
  C -0.262863 -2.874251 -0.017718
  C -0.664041 -3.574522 1.264290
  C -1.207884 -1.605782 -0.061471
  C -0.580795 -0.272075 0.078341
  O -2.381810 -1.787481 -0.159122
  H 1.657889 -3.674100 -0.286364
  H 1.682100 -2.273316 0.736765
  H 1.486618 -2.126553 -1.046671
  H -0.646362 -3.406763 -0.898254
  H -0.348803 -3.022189 2.150197
  H -0.150024 -4.537463 1.306540
  H -1.736980 -3.740376 1.312765
  H 0.715127 -0.203812 -0.044396
  H -0.809762 0.099761 1.076374
  H -1.019323 0.397364 -0.661847
  O 2.585630 0.170501 -0.139705
  H 2.705329 0.777127 -0.875870
  H 1.379150 0.002236 -0.015522
 19
 86.091965
  C 1.205861 -2.675431 -0.146116
  C -0.273437 -2.879765 -0.011914
  C -0.668559 -3.579537 1.272657
  C -1.242222 -1.623349 -0.058819
  C -0.650673 -0.283707 0.089372
  O -2.413311 -1.823615 -0.162093
  H 1.659022 -3.664848 -0.274525
  H 1.682403 -2.259879 0.744285
  H 1.484026 -2.120414 -1.040247
  H -0.647394 -3.421644 -0.893269
  H -0.361966 -3.019121 2.156428
  H -0.143816 -4.534405 1.320259
  H -1.739719 -3.758511 1.319634
  H 0.744701 -0.191768 -0.036039
  H -0.881839 0.081358 1.088680
  H -1.090180 0.383548 -0.650832
  O 2.714068 0.188504 -0.149189
  H 2.829462 0.798084 -0.883370
  H 1.389008 0.003815 -0.012063
 19
 101.859440
  C 1.199628 -2.666664 -0.138290
  C -0.287566 -2.884295 -0.005318
  C -0.676572 -3.583417 1.282887
  C -1.276326 -1.643489 -0.056203
  C -0.721124 -0.294608 0.100773
  O -2.444286 -1.861975 -0.166022
  H 1.655530 -3.653254 -0.261990
  H 1.677658 -2.244194 0.750383
  H 1.475530 -2.114397 -1.033607
  H -0.651443 -3.435439 -0.885239
  H -0.378727 -3.014704 2.163514
  H -0.140337 -4.532164 1.336533
  H -1.745471 -3.775315 1.328802
  H 0.775373 -0.175788 -0.024834
  H -0.949915 0.065430 1.101457
  H -1.155909 0.372242 -0.641164
  O 2.850206 0.208473 -0.158431
  H 2.961105 0.822661 -0.889288
  H 1.401237 0.009580 -0.005534
