13

H 3.587202885573673 -0.5976393446280736 -0.9852064062356133
C 4.657063 -0.605492 -1.000623
C 5.377791 -1.120731 -2.012122
C 6.816275 -1.130255 -2.030813
C 7.53431 -1.64209 -3.035639
C 9.024633 -1.66201 -3.074738
H 5.161381 -0.170542 -0.146746
H 4.873961 -1.555763 -2.866161
H 7.324083 -0.696021 -1.17834
H 7.035215 -2.078291 -3.891957
H 9.463166 -1.209343 -2.186084
H 9.382402 -1.116584 -3.949403
H 9.382403 -2.690205 -3.147831
