17

C 0.958034 -0.0172 -0.005813
C 2.454348 0.001061 0.011841
C 3.169013 0.813766 0.797319
C 4.606798 0.829585 0.812606
C 5.326962 1.646151 1.601825
C 6.765636 1.660223 1.615421
C 7.484238 2.471733 2.399744
H 8.55383291846756 2.4929014133301446 2.4202039282858294
H 0.598152 -0.756566 -0.720406
H 0.561723 0.953953 -0.301036
H 0.561721 -0.279178 0.974831
H 2.954852 -0.688561 -0.654686
H 2.658724 1.500622 1.461172
H 5.110793 0.140686 0.146788
H 4.823504 2.33521 2.267797
H 7.272104 0.972032 0.950284
H 6.986125 3.162948 3.067807
