 13
 0.000000
  C 0.958049 -0.018411 -0.006438
  C 2.454458 0.003368 0.013710
  C 3.167280 0.813390 0.796473
  C 4.610246 0.833670 0.816837
  C 5.321073 1.641699 1.596981
  H 6.396179 1.650140 1.605799
  H 0.597418 -0.755030 -0.721333
  H 0.560888 0.953652 -0.295091
  H 0.561517 -0.279727 0.973891
  H 2.958013 -0.684140 -0.651967
  H 2.656491 1.500404 1.458444
  H 5.115327 0.144441 0.152092
  H 4.823304 2.330440 2.261289
 13
 1.136641
  C 0.978926 0.003193 0.004321
  C 2.469440 -0.037553 -0.060795
  C 3.174007 0.758176 0.737446
  C 4.617126 0.833252 0.801528
  C 5.292113 1.653275 1.633885
  H 6.368561 1.686095 1.658124
  H 0.510966 -0.766475 -0.602397
  H 0.610024 0.975343 -0.323575
  H 0.692226 -0.117521 1.048055
  H 2.942779 -0.736064 -0.734721
  H 2.592858 1.390593 1.399403
  H 5.155412 0.177458 0.125680
  H 4.776479 2.313711 2.313303
 13
 3.945569
  C 1.007021 0.031910 0.022098
  C 2.488410 -0.054776 -0.116927
  C 3.187957 0.722606 0.703672
  C 4.619312 0.842306 0.788427
  C 5.246744 1.634311 1.652808
  H 6.318451 1.701996 1.692374
  H 0.468296 -0.792983 -0.432004
  H 0.644602 0.961391 -0.413641
  H 0.830314 0.089399 1.098605
  H 2.930784 -0.756247 -0.800597
  H 2.549421 1.282088 1.377909
  H 5.186825 0.236270 0.090066
  H 4.700369 2.244314 2.352217
 13
 8.591661
  C 1.030379 0.055967 0.039814
  C 2.500629 -0.070516 -0.165003
  C 3.199099 0.692258 0.674303
  C 4.614656 0.843159 0.778038
  C 5.211209 1.623698 1.675300
  H 6.281873 1.716796 1.732241
  H 0.436530 -0.808038 -0.274589
  H 0.654981 0.941079 -0.478740
  H 0.975631 0.258697 1.124371
  H 2.917974 -0.767741 -0.873673
  H 2.505983 1.202280 1.356466
  H 5.206532 0.271298 0.065201
  H 4.637590 2.198804 2.387656
 13
 15.297766
  C 1.038852 0.072655 0.051456
  C 2.500545 -0.080780 -0.198607
  C 3.199537 0.667073 0.654566
  C 4.620271 0.846034 0.775993
  C 5.192195 1.616268 1.697972
  H 6.264842 1.731357 1.767511
  H 0.421198 -0.807800 -0.132193
  H 0.640703 0.905169 -0.534600
  H 1.096583 0.396247 1.120359
  H 2.900757 -0.764980 -0.932621
  H 2.458044 1.132428 1.336664
  H 5.231209 0.304980 0.055430
  H 4.601382 2.160828 2.415941
 13
 24.139655
  C 1.050727 0.088647 0.065355
  C 2.500498 -0.079537 -0.222805
  C 3.204777 0.649506 0.641893
  C 4.619128 0.846360 0.775658
  C 5.172373 1.608596 1.716464
  H 6.240768 1.734987 1.799668
  H 0.436428 -0.801258 0.001007
  H 0.614270 0.862657 -0.573210
  H 1.206112 0.509445 1.100489
  H 2.883731 -0.747757 -0.982325
  H 2.414714 1.083416 1.312350
  H 5.244470 0.324854 0.051871
  H 4.571535 2.127349 2.434644
 13
 34.637498
  C 1.055930 0.101814 0.073255
  C 2.499800 -0.075240 -0.238551
  C 3.213605 0.635630 0.635237
  C 4.623981 0.842751 0.777882
  C 5.163095 1.599178 1.730210
  H 6.226238 1.735835 1.819708
  H 0.454500 -0.800475 0.108486
  H 0.583819 0.815475 -0.603191
  H 1.286416 0.605272 1.080255
  H 2.869312 -0.715025 -1.022276
  H 2.368104 1.049761 1.299440
  H 5.258251 0.336867 0.054638
  H 4.550181 2.107064 2.453655
 13
 46.887886
  C 1.057381 0.110131 0.076010
  C 2.494098 -0.065014 -0.245079
  C 3.216178 0.631651 0.634397
  C 4.628372 0.839505 0.784056
  C 5.160828 1.594868 1.742349
  H 6.225021 1.738784 1.835076
  H 0.467687 -0.803315 0.165334
  H 0.557115 0.787758 -0.613652
  H 1.349429 0.660001 1.081200
  H 2.857028 -0.695106 -1.046838
  H 2.320136 1.033301 1.284320
  H 5.269748 0.340554 0.060719
  H 4.541267 2.102471 2.462476
 13
 58.514563
  C 1.054708 0.111318 0.074202
  C 2.492053 -0.055906 -0.245054
  C 3.220851 0.631318 0.636210
  C 4.631897 0.839287 0.788560
  C 5.162829 1.592437 1.749144
  H 6.225007 1.737134 1.841985
  H 0.480916 -0.804960 0.199707
  H 0.538039 0.764473 -0.623422
  H 1.386192 0.701684 1.089732
  H 2.851178 -0.672385 -1.055687
  H 2.272939 1.026485 1.283504
  H 5.275092 0.343148 0.065431
  H 4.542623 2.100106 2.469298
 13
 68.441801
  C 1.049367 0.106684 0.070329
  C 2.488986 -0.042271 -0.244818
  C 3.226351 0.632002 0.641433
  C 4.636698 0.834183 0.797061
  C 5.168743 1.586868 1.757555
  H 6.230741 1.736160 1.845181
  H 0.495280 -0.815829 0.225272
  H 0.516404 0.736599 -0.636144
  H 1.401208 0.744787 1.104722
  H 2.847604 -0.641311 -1.068746
  H 2.231079 1.032673 1.293518
  H 5.279629 0.340866 0.072301
  H 4.549477 2.103531 2.471929
 13
 77.973232
  C 1.039692 0.095690 0.058968
  C 2.486069 -0.029209 -0.238333
  C 3.232552 0.643416 0.640633
  C 4.641350 0.848680 0.789795
  C 5.177220 1.596708 1.751895
  H 6.240655 1.714252 1.858722
  H 0.509068 -0.832715 0.242682
  H 0.493094 0.699509 -0.658855
  H 1.400969 0.794021 1.131558
  H 2.849263 -0.619004 -1.064980
  H 2.187437 1.057406 1.316305
  H 5.284140 0.343561 0.071613
  H 4.562851 2.089267 2.486636
 13
 88.157688
  C 1.031577 0.086785 0.040421
  C 2.479595 -0.014992 -0.224143
  C 3.240909 0.635810 0.653892
  C 4.649185 0.832615 0.804400
  C 5.188859 1.581664 1.763428
  H 6.252364 1.732145 1.840953
  H 0.514050 -0.849309 0.233784
  H 0.482160 0.683397 -0.681167
  H 1.392224 0.831803 1.172995
  H 2.847236 -0.587206 -1.064198
  H 2.138401 1.064819 1.362866
  H 5.289484 0.341663 0.075638
  H 4.575499 2.100679 2.481841
 13
 98.161130
  C 1.019322 0.063113 0.008636
  C 2.473932 0.002284 -0.203968
  C 3.252683 0.648859 0.652265
  C 4.657647 0.851381 0.790956
  C 5.205159 1.594430 1.750087
  H 6.269625 1.710555 1.842885
  H 0.523240 -0.877157 0.207523
  H 0.471296 0.649537 -0.719184
  H 1.355561 0.886050 1.243192
  H 2.850440 -0.568017 -1.037329
  H 2.071199 1.110893 1.433737
  H 5.296387 0.349237 0.066347
  H 4.600680 2.082263 2.496196
 13
 106.900147
  C 1.012184 0.041798 -0.029070
  C 2.461353 0.024453 -0.172241
  C 3.266123 0.642605 0.668264
  C 4.670017 0.836561 0.801546
  C 5.224435 1.579533 1.756859
  H 6.289600 1.726157 1.819040
  H 0.530176 -0.913064 0.155283
  H 0.471562 0.636501 -0.756018
  H 1.300040 0.927459 1.337705
  H 2.844055 -0.531387 -1.019461
  H 1.991793 1.143024 1.535389
  H 5.306474 0.346801 0.065622
  H 4.622699 2.096926 2.486088
