 25
 0.000000
  H 1.458335 0.166570 0.465662
  C 2.537464 0.148286 0.419889
  C 3.299375 0.615338 1.582152
  C 2.459953 1.089653 2.762929
  C 3.343455 1.553301 3.916899
  C 3.096596 -0.322342 -0.751925
  C 4.477449 -0.421356 -0.998770
  C 5.104997 -0.876920 -2.134549
  C 4.593096 -1.389237 -3.411767
  C 3.104165 -1.501812 -3.692803
  H 2.953537 -1.901721 -4.689724
  H 6.187138 -0.875134 -2.130251
  H 3.963586 1.430447 1.268297
  H 3.963749 -0.190214 1.919420
  H 1.816935 0.279839 3.112931
  H 1.816831 1.916462 2.455462
  H 3.978629 0.744838 4.271676
  H 2.730827 1.888004 4.750267
  H 3.978476 2.382601 3.613710
  H 2.414191 -0.632890 -1.525501
  H 5.129779 -0.099516 -0.196788
  H 5.053789 -2.377722 -3.547820
  H 5.054049 -0.769019 -4.193289
  H 2.623222 -0.526993 -3.647499
  H 2.623012 -2.174955 -2.986396
 25
 0.238519
  H 1.527526 0.406032 0.384395
  C 2.601870 0.293944 0.359050
  C 3.333191 0.628512 1.585011
  C 2.455684 1.102105 2.737990
  C 3.285655 1.428556 3.974485
  C 3.161551 -0.166514 -0.807444
  C 4.543204 -0.285558 -1.050955
  C 5.108000 -0.777974 -2.200160
  C 4.550159 -1.410363 -3.397983
  C 3.061271 -1.637953 -3.592519
  H 2.914058 -2.162001 -4.535734
  H 6.190615 -0.722509 -2.258429
  H 4.079284 1.401770 1.354287
  H 3.929235 -0.233378 1.908229
  H 1.727676 0.328211 2.991321
  H 1.896509 1.990368 2.437926
  H 3.829669 0.552637 4.321595
  H 2.642365 1.765510 4.783443
  H 4.002456 2.220353 3.765520
  H 2.525016 -0.436268 -1.632395
  H 5.222206 0.069940 -0.287839
  H 5.061746 -2.381620 -3.471160
  H 4.946607 -0.852657 -4.258518
  H 2.512717 -0.701684 -3.667439
  H 2.641319 -2.262972 -2.808018
 25
 1.085048
  H 1.551302 0.562272 0.315869
  C 2.620656 0.400843 0.305612
  C 3.336818 0.645061 1.564903
  C 2.450953 1.098962 2.718700
  C 3.266628 1.338078 3.985309
  C 3.181078 -0.047023 -0.864627
  C 4.564954 -0.207539 -1.079419
  C 5.124625 -0.737206 -2.208842
  C 4.536811 -1.445125 -3.359954
  C 3.049918 -1.702229 -3.516825
  H 2.893388 -2.299426 -4.416620
  H 6.192777 -0.658607 -2.366601
  H 4.120253 1.398361 1.390722
  H 3.889952 -0.256297 1.860822
  H 1.692255 0.339707 2.921615
  H 1.934095 2.022043 2.444750
  H 3.773731 0.429339 4.299673
  H 2.621435 1.659630 4.796870
  H 4.014319 2.110004 3.826633
  H 2.532617 -0.244113 -1.708744
  H 5.244285 0.157835 -0.315781
  H 5.053129 -2.414831 -3.371774
  H 4.920317 -0.953919 -4.267778
  H 2.490646 -0.778822 -3.653282
  H 2.647257 -2.263471 -2.674035
 25
 4.070517
  H 1.591225 0.581704 0.266001
  C 2.659462 0.410521 0.282115
  C 3.343582 0.630929 1.557652
  C 2.438033 1.108423 2.687577
  C 3.224632 1.327047 3.976624
  C 3.248209 -0.042877 -0.878237
  C 4.638928 -0.185447 -1.080517
  C 5.165022 -0.727893 -2.215800
  C 4.511873 -1.446938 -3.329026
  C 3.012453 -1.676436 -3.458873
  H 2.830312 -2.266953 -4.353678
  H 6.213383 -0.758308 -2.475855
  H 4.150669 1.362481 1.409312
  H 3.863767 -0.283911 1.869546
  H 1.653361 0.368213 2.873004
  H 1.950656 2.045162 2.402961
  H 3.698907 0.405480 4.304758
  H 2.562728 1.663401 4.769619
  H 3.994327 2.082469 3.839820
  H 2.615168 -0.252689 -1.734733
  H 5.302169 0.184575 -0.319171
  H 5.006970 -2.426833 -3.332490
  H 4.882506 -0.978660 -4.251828
  H 2.464416 -0.746592 -3.587597
  H 2.609768 -2.231992 -2.616883
 25
 9.618408
  H 1.671254 0.677461 0.201003
  C 2.738498 0.462564 0.259898
  C 3.372277 0.641506 1.565440
  C 2.408039 1.108095 2.658169
  C 3.143068 1.296182 3.993432
  C 3.371095 -0.002414 -0.836259
  C 4.763228 -0.094458 -1.125846
  C 5.189941 -0.763515 -2.230820
  C 4.434316 -1.494764 -3.288643
  C 2.924698 -1.630115 -3.416663
  H 2.775516 -2.210035 -4.324888
  H 6.244263 -0.843102 -2.463227
  H 4.191961 1.367105 1.444734
  H 3.838946 -0.304524 1.874447
  H 1.623475 0.363191 2.788130
  H 1.958537 2.053876 2.379907
  H 3.610171 0.374468 4.317362
  H 2.453098 1.613623 4.761556
  H 3.915550 2.053121 3.902968
  H 2.942072 -0.397907 -1.749430
  H 5.472958 0.381936 -0.458849
  H 4.829628 -2.514700 -3.204970
  H 4.806498 -1.080372 -4.231792
  H 2.389801 -0.705126 -3.613740
  H 2.465314 -2.217600 -2.626650
 25
 21.268121
  H 1.778786 0.778041 0.141260
  C 2.806887 0.450569 0.257194
  C 3.392482 0.562610 1.617502
  C 2.414326 1.166949 2.631465
  C 3.056728 1.310842 4.009758
  C 3.478743 -0.034176 -0.804253
  C 4.859581 -0.127846 -1.127466
  C 5.221823 -0.726515 -2.295134
  C 4.412668 -1.464308 -3.308415
  C 2.886458 -1.622447 -3.311847
  H 2.713578 -2.264700 -4.202213
  H 6.246984 -0.831631 -2.659063
  H 4.262963 1.200491 1.546747
  H 3.700657 -0.431492 1.952361
  H 1.519339 0.529277 2.682286
  H 2.091361 2.144153 2.249000
  H 3.381822 0.357578 4.376559
  H 2.360145 1.726359 4.710943
  H 3.930984 1.972219 3.965405
  H 3.033469 -0.412023 -1.759744
  H 5.590293 0.349300 -0.485853
  H 4.818599 -2.479028 -3.313970
  H 4.688448 -1.033626 -4.276356
  H 2.280099 -0.756201 -3.538374
  H 2.493606 -2.240287 -2.517755
 25
 47.327788
  H 1.784565 0.694881 0.071392
  C 2.841419 0.409314 0.221359
  C 3.391051 0.525154 1.624884
  C 2.376873 1.150252 2.589856
  C 3.014564 1.362149 3.959900
  C 3.517653 -0.050853 -0.760017
  C 4.912045 -0.217874 -1.083977
  C 5.281855 -0.730209 -2.297263
  C 4.412952 -1.451994 -3.313407
  C 2.892502 -1.541480 -3.223934
  H 2.664292 -2.142809 -4.144146
  H 6.296432 -0.822488 -2.603603
  H 4.282735 1.167915 1.571003
  H 3.709832 -0.454026 1.992585
  H 1.514667 0.498241 2.689754
  H 2.040659 2.123991 2.190632
  H 3.348196 0.401907 4.377393
  H 2.312042 1.806134 4.632235
  H 3.876344 2.027616 3.897330
  H 3.010184 -0.604071 -1.963717
  H 5.652687 0.257799 -0.468578
  H 4.761040 -2.470059 -3.374133
  H 4.638293 -1.020403 -4.273873
  H 2.262422 -0.652561 -3.394304
  H 2.496194 -2.153394 -2.414353
 25
 68.295349
  H 1.897551 0.754731 0.045006
  C 2.936131 0.480098 0.185537
  C 3.427178 0.598459 1.612033
  C 2.365360 1.143504 2.547274
  C 2.906289 1.284435 3.974132
  C 3.639590 0.011895 -0.813741
  C 4.994709 -0.181202 -1.182349
  C 5.334196 -0.749964 -2.341649
  C 4.379536 -1.453920 -3.277904
  C 2.745745 -1.530367 -3.079699
  H 2.500778 -2.170977 -3.925910
  H 6.355163 -0.833772 -2.686543
  H 4.303026 1.259847 1.616964
  H 3.763161 -0.388613 1.964098
  H 1.500430 0.473536 2.553253
  H 2.030789 2.121418 2.194998
  H 3.229058 0.318605 4.362574
  H 2.139686 1.675990 4.634754
  H 3.754988 1.963514 4.000948
  H 3.410533 -0.705713 -2.414895
  H 5.750876 0.290459 -0.559274
  H 4.691363 -2.501225 -3.242294
  H 4.554575 -1.070519 -4.277608
  H 2.114935 -0.633448 -3.239575
  H 2.421970 -2.067254 -2.177245
 25
 71.115661
  H 1.996975 1.001817 -0.006998
  C 3.015982 0.666803 0.144264
  C 3.441899 0.615404 1.600690
  C 2.357567 1.147199 2.534899
  C 2.817603 1.119363 3.985443
  C 3.717372 0.206693 -0.853886
  C 5.023009 0.038311 -1.330935
  C 5.344982 -0.714346 -2.395197
  C 4.363873 -1.549685 -3.198883
  C 2.688692 -1.564970 -2.973319
  H 2.421388 -2.322025 -3.709523
  H 6.352195 -0.823157 -2.755422
  H 4.355492 1.220018 1.702475
  H 3.700913 -0.413133 1.876126
  H 1.455128 0.542740 2.433602
  H 2.108677 2.177050 2.260289
  H 3.055045 0.102382 4.298647
  H 2.038387 1.503960 4.638601
  H 3.705101 1.733681 4.117452
  H 3.528042 -0.746460 -2.618094
  H 5.793450 0.636200 -0.854454
  H 4.637737 -2.578973 -2.976185
  H 4.537460 -1.342363 -4.254335
  H 2.098551 -0.677366 -3.235827
  H 2.387748 -1.925821 -1.986981
 25
 77.722978
  H 1.979886 0.938893 0.054882
  C 3.005086 0.632228 0.214886
  C 3.435015 0.638281 1.669471
  C 2.337544 1.158360 2.591679
  C 2.804294 1.180318 4.042098
  C 3.719803 0.182197 -0.776281
  C 5.008022 -0.038829 -1.266059
  C 5.294533 -0.723057 -2.388377
  C 4.282887 -1.554421 -3.312104
  C 2.673541 -1.628214 -3.135289
  H 2.339766 -2.341915 -3.887875
  H 6.288179 -0.801883 -2.790750
  H 4.324266 1.270454 1.753015
  H 3.723752 -0.370907 1.969629
  H 1.455186 0.522210 2.509832
  H 2.055098 2.168740 2.292139
  H 3.073581 0.180995 4.375861
  H 2.013436 1.554940 4.691184
  H 3.673167 1.825795 4.157870
  H 3.763379 -0.746845 -2.651411
  H 5.817567 0.484311 -0.761784
  H 4.634535 -2.570983 -3.133431
  H 4.505499 -1.252933 -4.335530
  H 2.145448 -0.694835 -3.323252
  H 2.388263 -2.009687 -2.156704
 25
 78.355122
  H 1.980054 0.958933 0.142355
  C 3.010467 0.664776 0.300939
  C 3.438904 0.671914 1.757875
  C 2.336322 1.182343 2.679309
  C 2.804853 1.211536 4.131172
  C 3.727471 0.224135 -0.691966
  C 4.991043 -0.015727 -1.218359
  C 5.233124 -0.682942 -2.367508
  C 4.195189 -1.592075 -3.423276
  C 2.643869 -1.760140 -3.377575
  H 2.372703 -2.470171 -4.154213
  H 6.213623 -0.795869 -2.783778
  H 4.319999 1.312363 1.840879
  H 3.740173 -0.335163 2.057487
  H 1.457940 0.537357 2.596398
  H 2.044899 2.192204 2.380197
  H 3.085519 0.216230 4.469427
  H 2.012721 1.580239 4.778832
  H 3.667910 1.866336 4.242553
  H 3.969754 -0.737558 -2.655304
  H 5.827401 0.490836 -0.739491
  H 4.627583 -2.569543 -3.221338
  H 4.493562 -1.238759 -4.408350
  H 2.114478 -0.831772 -3.580316
  H 2.310859 -2.158358 -2.423389
 25
 78.440154
  H 1.854982 0.793200 0.293194
  C 2.907705 0.559873 0.411009
  C 3.419127 0.691974 1.832554
  C 2.344573 1.193264 2.788991
  C 2.896004 1.335665 4.204278
  C 3.595830 0.111818 -0.600073
  C 4.869043 -0.082250 -1.116430
  C 5.175504 -0.670822 -2.288661
  C 4.183086 -1.609031 -3.584109
  C 2.673657 -1.824304 -3.675562
  H 2.486470 -2.468939 -4.529292
  H 6.159664 -0.785157 -2.686087
  H 4.263407 1.386333 1.822634
  H 3.799577 -0.273217 2.176205
  H 1.505106 0.494769 2.801235
  H 1.972668 2.162332 2.450905
  H 3.255310 0.377826 4.576869
  H 2.121350 1.694737 4.879357
  H 3.722620 2.044330 4.227500
  H 4.067797 -0.820917 -2.705336
  H 5.692351 0.376833 -0.569360
  H 4.681965 -2.554917 -3.403605
  H 4.564336 -1.127338 -4.479294
  H 2.133796 -0.894891 -3.834850
  H 2.280893 -2.312502 -2.787924
