11

H -0.6379610073170969 -0.8117845204469529 0.7518710563929291
C -0.236652 -0.945747 0.797224
C 0.812019 -0.080276 0.109748
C 2.221267 -0.616397 0.345022
H 2.541274037625465 -0.36511545483660407 0.12100405798636926
H -0.011413 -1.001889 1.868972
H -0.174309 -1.966771 0.403697
H 0.610108 -0.052561 -0.961156
H 0.752647 0.93958 0.4954
H 2.422817 -0.582718 1.417625
H 2.270273 -1.661292 0.032792
