 17
 0.000000
  H 1.387361 0.163311 0.458556
  C 2.459512 0.133988 0.385379
  H 3.067021 0.465221 1.209137
  C 3.008610 -0.332820 -0.776284
  C 4.393022 -0.411634 -0.973492
  C 5.107259 -0.861041 -2.094541
  C 4.621284 -1.382025 -3.394031
  C 3.136545 -1.502045 -3.693886
  H 3.012104 -1.902756 -4.693455
  O 6.415242 -0.843872 -2.052139
  H 2.327589 -0.643527 -1.549062
  H 5.003201 -0.076871 -0.140501
  H 5.092108 -2.365055 -3.518329
  H 5.092475 -0.757478 -4.163070
  H 2.648795 -0.531242 -3.659355
  H 2.648602 -2.180068 -2.998397
  H 6.806696 -0.511526 -1.220497
 17
 0.476737
  H 1.407271 0.085307 0.553165
  C 2.457980 0.176276 0.338251
  H 3.036263 0.814199 0.986841
  C 3.007666 -0.460144 -0.732301
  C 4.393821 -0.477441 -0.950416
  C 5.113814 -0.889265 -2.082247
  C 4.620480 -1.374033 -3.391682
  C 3.135091 -1.450303 -3.694425
  H 3.012097 -1.785091 -4.720837
  O 6.419006 -0.835292 -2.051297
  H 2.344167 -0.910260 -1.451682
  H 4.995300 -0.147374 -0.109304
  H 5.074306 -2.361520 -3.543130
  H 5.110821 -0.745468 -4.145691
  H 2.657738 -0.478962 -3.604427
  H 2.630883 -2.174036 -3.060243
  H 6.815647 -0.525603 -1.213393
 17
 2.821353
  H 1.409103 -0.011057 0.567488
  C 2.440249 0.198227 0.317562
  H 2.909944 0.993723 0.867009
  C 3.045479 -0.463122 -0.709081
  C 4.424468 -0.491894 -0.935041
  C 5.128011 -0.917652 -2.074527
  C 4.620940 -1.356528 -3.394025
  C 3.122659 -1.458667 -3.663655
  H 2.979503 -1.757896 -4.700456
  O 6.434420 -0.879257 -2.057163
  H 2.376064 -0.877188 -1.467601
  H 5.037990 -0.196616 -0.091296
  H 5.095664 -2.325085 -3.611660
  H 5.080401 -0.671645 -4.114531
  H 2.622545 -0.506356 -3.515369
  H 2.650853 -2.228097 -3.054573
  H 6.835419 -0.583294 -1.219259
 17
 5.710162
  H 1.445856 -0.069429 0.626054
  C 2.427200 0.213764 0.280351
  H 2.849688 1.102122 0.720427
  C 3.056269 -0.536187 -0.674288
  C 4.432255 -0.529338 -0.916537
  C 5.128939 -0.918043 -2.065952
  C 4.610228 -1.337313 -3.392486
  C 3.118426 -1.450198 -3.651214
  H 2.972677 -1.774568 -4.674622
  O 6.435459 -0.857964 -2.063811
  H 2.394679 -0.942390 -1.428180
  H 5.046746 -0.214343 -0.079434
  H 5.096518 -2.292158 -3.622910
  H 5.044459 -0.637780 -4.113384
  H 2.617482 -0.488119 -3.540895
  H 2.658223 -2.190935 -3.014422
  H 6.846277 -0.598384 -1.216981
 17
 11.432197
  H 1.431132 -0.092760 0.571755
  C 2.384291 0.221472 0.179013
  H 2.671329 1.238880 0.400221
  C 3.130176 -0.631480 -0.587230
  C 4.491774 -0.561642 -0.879763
  C 5.150663 -0.922253 -2.053261
  C 4.591338 -1.290676 -3.381528
  C 3.092315 -1.409540 -3.588345
  H 2.911904 -1.708220 -4.616774
  O 6.458266 -0.895971 -2.083183
  H 2.480923 -1.093779 -1.327535
  H 5.132402 -0.307997 -0.035317
  H 5.065404 -2.235257 -3.652090
  H 4.997993 -0.561070 -4.091296
  H 2.592042 -0.460857 -3.434576
  H 2.660780 -2.178575 -2.955571
  H 6.890462 -0.615840 -1.253799
 17
 20.437556
  H 1.436729 -0.254748 0.590352
  C 2.327920 0.171952 0.156631
  H 2.497632 1.217447 0.382108
  C 3.179658 -0.606210 -0.592502
  C 4.522542 -0.539492 -0.904090
  C 5.179651 -0.903973 -2.077148
  C 4.606094 -1.340577 -3.381264
  C 3.093941 -1.384241 -3.546308
  H 2.870702 -1.638765 -4.577776
  O 6.493600 -0.903265 -2.113856
  H 2.422223 -0.884974 -1.324591
  H 5.160370 -0.270539 -0.068927
  H 5.031352 -2.326477 -3.591331
  H 5.026843 -0.651214 -4.122429
  H 2.650546 -0.409870 -3.349149
  H 2.655947 -2.160092 -2.924195
  H 6.923103 -0.598658 -1.290796
 17
 30.807370
  H 1.464585 -0.375896 0.610955
  C 2.291896 0.138031 0.142234
  H 2.341296 1.206491 0.342887
  C 3.215430 -0.579881 -0.578479
  C 4.553199 -0.548366 -0.897418
  C 5.197114 -0.898578 -2.079954
  C 4.602672 -1.326141 -3.377163
  C 3.089530 -1.367571 -3.529758
  H 2.851513 -1.735125 -4.522598
  O 6.513258 -0.855839 -2.145176
  H 2.386574 -0.697060 -1.299767
  H 5.193073 -0.352995 -0.041941
  H 5.017713 -2.308507 -3.598421
  H 5.034941 -0.674060 -4.149428
  H 2.659272 -0.374967 -3.434576
  H 2.643562 -2.055513 -2.817846
  H 6.952546 -0.651465 -1.298999
 17
 39.740755
  H 1.476020 -0.501902 0.553724
  C 2.223555 0.065833 0.008958
  H 2.117937 1.148052 0.073055
  C 3.315150 -0.528650 -0.543590
  C 4.619976 -0.535754 -0.906675
  C 5.243255 -0.932535 -2.077963
  C 4.602469 -1.320104 -3.370276
  C 3.081979 -1.318248 -3.433289
  H 2.774318 -1.613737 -4.432077
  O 6.576399 -0.953356 -2.162893
  H 2.255720 -0.605166 -1.162215
  H 5.264731 -0.288922 -0.067246
  H 4.981090 -2.317076 -3.622912
  H 5.005432 -0.654098 -4.138987
  H 2.686261 -0.321997 -3.255699
  H 2.662329 -2.042210 -2.738962
  H 7.025590 -0.709862 -1.336737
 17
 36.051350
  H 1.530240 -0.597658 0.575490
  C 2.188456 0.020229 -0.035793
  H 2.046114 1.094225 0.065733
  C 3.354818 -0.468092 -0.546493
  C 4.632746 -0.511428 -0.933906
  C 5.266838 -0.944710 -2.088104
  C 4.615083 -1.328367 -3.376777
  C 3.096488 -1.310484 -3.407873
  H 2.763165 -1.592518 -4.402226
  O 6.601988 -0.967458 -2.171457
  H 1.994627 -0.444451 -1.096720
  H 5.269974 -0.237966 -0.090493
  H 4.980932 -2.325898 -3.634606
  H 5.010233 -0.666053 -4.150749
  H 2.717548 -0.311430 -3.209625
  H 2.685049 -2.036312 -2.708007
  H 7.052303 -0.769077 -1.333980
 17
 30.510355
  H 1.658264 -0.641849 0.665879
  C 2.142468 -0.027154 -0.093482
  H 1.941336 1.042485 -0.029057
  C 3.380814 -0.424551 -0.561637
  C 4.639907 -0.503459 -0.955862
  C 5.291029 -0.948210 -2.098191
  C 4.626409 -1.340161 -3.375587
  C 3.112140 -1.254674 -3.385670
  H 2.748062 -1.551644 -4.362245
  O 6.624587 -1.024322 -2.159604
  H 1.729207 -0.472504 -1.028057
  H 5.270173 -0.229692 -0.103835
  H 4.948399 -2.358739 -3.610616
  H 5.042304 -0.710606 -4.170690
  H 2.781397 -0.232747 -3.204232
  H 2.683544 -1.940932 -2.654037
  H 7.079443 -0.732869 -1.353579
 17
 26.341973
  H 1.725308 -0.651620 0.646566
  C 2.105264 -0.052997 -0.182695
  H 1.922321 1.013066 -0.060989
  C 3.400785 -0.381418 -0.575252
  C 4.659011 -0.503619 -0.934775
  C 5.306201 -0.934369 -2.102104
  C 4.624068 -1.319208 -3.365850
  C 3.107130 -1.257103 -3.342075
  H 2.722335 -1.551444 -4.315059
  O 6.624022 -1.005866 -2.172767
  H 1.536094 -0.422026 -1.047460
  H 5.316904 -0.238752 -0.094882
  H 4.957788 -2.331857 -3.616139
  H 5.016151 -0.676985 -4.161437
  H 2.769792 -0.244398 -3.143637
  H 2.707323 -1.947110 -2.604603
  H 7.088663 -0.783725 -1.346757
 17
 23.100622
  H 1.766811 -0.604779 0.650001
  C 2.082541 -0.071605 -0.251515
  H 1.935460 1.003566 -0.147210
  C 3.401420 -0.393836 -0.597154
  C 4.676263 -0.511925 -0.897527
  C 5.308419 -0.932372 -2.090925
  C 4.611736 -1.304824 -3.344715
  C 3.095979 -1.241257 -3.320186
  H 2.710765 -1.526508 -4.295680
  O 6.613262 -0.992523 -2.171358
  H 1.413527 -0.438922 -1.037946
  H 5.363768 -0.282464 -0.074428
  H 4.942005 -2.316383 -3.605463
  H 5.005948 -0.660482 -4.138274
  H 2.757202 -0.231623 -3.109101
  H 2.694080 -1.934725 -2.587418
  H 7.094998 -0.763831 -1.354427
 17
 22.244448
  H 1.806689 -0.558562 0.675397
  C 2.062963 -0.064343 -0.268037
  H 1.962979 1.016282 -0.139834
  C 3.370288 -0.413992 -0.643714
  C 4.657422 -0.525319 -0.893543
  C 5.301370 -0.941274 -2.084746
  C 4.610026 -1.297293 -3.344738
  C 3.094038 -1.249670 -3.322979
  H 2.712600 -1.525888 -4.302696
  O 6.603672 -0.969586 -2.164443
  H 1.322119 -0.403703 -1.000412
  H 5.339916 -0.287886 -0.069835
  H 4.952356 -2.300891 -3.618841
  H 5.000623 -0.639875 -4.130459
  H 2.745686 -0.245927 -3.097497
  H 2.694851 -1.953560 -2.597558
  H 7.082655 -0.760898 -1.339597
 17
 21.915256
  H 1.808004 -0.611363 0.672318
  C 2.059535 -0.071999 -0.247609
  H 1.998614 1.001871 -0.053659
  C 3.353335 -0.402834 -0.687244
  C 4.646267 -0.526178 -0.904389
  C 5.303503 -0.914888 -2.098570
  C 4.616614 -1.307409 -3.348536
  C 3.101218 -1.246520 -3.335811
  H 2.719956 -1.587285 -4.295507
  O 6.603619 -0.968632 -2.160582
  H 1.293081 -0.324449 -0.990142
  H 5.316046 -0.340966 -0.056803
  H 4.953845 -2.319482 -3.597697
  H 5.014961 -0.672229 -4.146692
  H 2.756247 -0.228226 -3.179434
  H 2.696549 -1.896603 -2.564657
  H 7.078859 -0.705193 -1.348517
 17
 19.453523
  H 1.828141 -0.877816 0.475403
  C 2.105630 -0.007270 -0.121364
  H 2.359942 0.815401 0.558751
  C 3.185318 -0.380432 -0.967107
  C 4.518702 -0.421102 -1.006536
  C 5.261450 -0.897513 -2.104141
  C 4.656459 -1.360184 -3.370579
  C 3.141184 -1.374097 -3.450167
  H 2.834848 -1.712301 -4.434792
  O 6.552230 -0.942566 -2.079450
  H 1.223085 0.270279 -0.699435
  H 5.097790 -0.074384 -0.147272
  H 5.057157 -2.358007 -3.570352
  H 5.070391 -0.731415 -4.165759
  H 2.734089 -0.377071 -3.296213
  H 2.715554 -2.051759 -2.713435
  H 6.978281 -0.642150 -1.251083
