 26
 0.000000
  C 0.956703 0.140160 0.407204
  C 2.431596 0.138652 0.396870
  C 3.226781 0.606285 1.556945
  C 2.460295 1.097744 2.781132
  H 3.146983 1.409481 3.554055
  C 3.041913 -0.328137 -0.764657
  C 4.418530 -0.411254 -0.969349
  C 5.108821 -0.860885 -2.090092
  C 4.617294 -1.382669 -3.394251
  C 3.129362 -1.500677 -3.693719
  H 2.989824 -1.898688 -4.688011
  O 6.428123 -0.853857 -2.069302
  H 0.533339 0.511486 1.332531
  H 0.585612 -0.870955 0.233950
  H 0.579306 0.747820 -0.416578
  H 3.883929 1.415256 1.218595
  H 3.886019 -0.210149 1.872507
  H 1.826822 0.305265 3.177319
  H 1.824795 1.942492 2.518784
  H 2.373670 -0.642265 -1.547618
  H 5.045270 -0.082598 -0.148979
  H 5.080425 -2.368466 -3.517765
  H 5.082645 -0.755855 -4.163747
  H 2.651479 -0.524235 -3.646284
  H 2.649378 -2.173439 -2.985892
  H 6.821443 -0.523166 -1.240608
 26
 1.805299
  C 1.002318 0.155302 0.348800
  C 2.475387 0.173977 0.418560
  C 3.239180 0.614347 1.609329
  C 2.420104 1.087721 2.801519
  H 3.085970 1.385195 3.606615
  C 3.069512 -0.295611 -0.736876
  C 4.438917 -0.386336 -0.975292
  C 5.111872 -0.856952 -2.110992
  C 4.591560 -1.400888 -3.400419
  C 3.098095 -1.519491 -3.654823
  H 2.950736 -1.935953 -4.648267
  O 6.437262 -0.849525 -2.117833
  H 0.497773 0.418727 1.271292
  H 0.729273 -0.857680 0.016543
  H 0.653421 0.821985 -0.443815
  H 3.914586 1.420710 1.304848
  H 3.885110 -0.209736 1.928422
  H 1.774580 0.296442 3.175131
  H 1.803709 1.944408 2.540073
  H 2.330997 -0.619457 -1.469481
  H 5.082858 -0.043145 -0.173028
  H 5.055539 -2.386670 -3.518267
  H 5.042831 -0.786741 -4.187860
  H 2.613521 -0.548073 -3.627269
  H 2.627243 -2.189523 -2.941676
  H 6.849484 -0.506064 -1.303248
 26
 6.146996
  C 1.071942 0.153935 0.303406
  C 2.524212 0.192932 0.436156
  C 3.241406 0.617116 1.638729
  C 2.368839 1.079282 2.801825
  H 2.990301 1.372153 3.629849
  C 3.115868 -0.284192 -0.729007
  C 4.466347 -0.379187 -0.993688
  C 5.109406 -0.854691 -2.123831
  C 4.557256 -1.409467 -3.394692
  C 3.054530 -1.527463 -3.606781
  H 2.878847 -1.947018 -4.581187
  O 6.441381 -0.847038 -2.156754
  H 0.502151 0.308034 1.204613
  H 0.909930 -0.812491 -0.174147
  H 0.759070 0.888571 -0.431364
  H 3.927750 1.429022 1.364359
  H 3.878255 -0.211557 1.970295
  H 1.712723 0.278197 3.143925
  H 1.759336 1.937640 2.517553
  H 2.326067 -0.603053 -1.393564
  H 5.122541 -0.026289 -0.204274
  H 5.016798 -2.396702 -3.516190
  H 4.988583 -0.803063 -4.198847
  H 2.572818 -0.551490 -3.575668
  H 2.603923 -2.195396 -2.874532
  H 6.873096 -0.492666 -1.345765
 26
 11.975442
  C 1.081522 0.147018 0.266667
  C 2.537416 0.204859 0.445095
  C 3.245965 0.628458 1.673513
  C 2.354235 1.084080 2.813958
  H 2.965283 1.380817 3.665285
  C 3.126729 -0.277184 -0.717820
  C 4.483413 -0.375967 -1.001212
  C 5.114361 -0.860115 -2.139336
  C 4.547429 -1.418740 -3.394557
  C 3.046067 -1.534725 -3.579401
  H 2.851978 -1.964388 -4.564347
  O 6.433204 -0.854473 -2.190246
  H 0.464077 0.174984 1.160085
  H 1.014684 -0.762110 -0.355879
  H 0.770011 0.967927 -0.391086
  H 3.935829 1.436543 1.417376
  H 3.874546 -0.198285 2.011046
  H 1.696540 0.284680 3.138639
  H 1.750366 1.935417 2.518869
  H 2.291837 -0.600048 -1.342660
  H 5.147756 -0.019799 -0.223053
  H 5.003911 -2.406014 -3.517844
  H 4.966386 -0.816453 -4.207006
  H 2.568326 -0.561770 -3.543290
  H 2.609158 -2.196973 -2.839529
  H 6.872611 -0.498282 -1.391259
 26
 19.744093
  C 1.103245 0.149614 0.243533
  C 2.557825 0.220985 0.447302
  C 3.244204 0.631424 1.678227
  C 2.323969 1.079260 2.816257
  H 2.914311 1.369713 3.676339
  C 3.153403 -0.263399 -0.718991
  C 4.508905 -0.365372 -1.011546
  C 5.125126 -0.861570 -2.147510
  C 4.533579 -1.430571 -3.391556
  C 3.024363 -1.536470 -3.544228
  H 2.807365 -1.968653 -4.510989
  O 6.446185 -0.861636 -2.214033
  H 0.471814 0.069766 1.112791
  H 1.118318 -0.700349 -0.495708
  H 0.781759 1.018083 -0.324867
  H 3.943223 1.447311 1.437607
  H 3.872995 -0.204954 2.018280
  H 1.659521 0.271990 3.124558
  H 1.718734 1.934677 2.515786
  H 2.266947 -0.606432 -1.307195
  H 5.182582 -0.003047 -0.238804
  H 4.981737 -2.422952 -3.514034
  H 4.941618 -0.837596 -4.217802
  H 2.554363 -0.557039 -3.505963
  H 2.597685 -2.190169 -2.787860
  H 6.896037 -0.499763 -1.424046
 26
 29.379663
  C 1.115833 0.124528 0.235200
  C 2.562921 0.214255 0.451372
  C 3.242604 0.648256 1.687765
  C 2.315208 1.095817 2.806292
  H 2.899503 1.408397 3.672705
  C 3.161336 -0.273550 -0.709471
  C 4.513569 -0.380694 -1.006780
  C 5.124520 -0.874432 -2.148504
  C 4.526479 -1.428224 -3.391010
  C 3.016841 -1.521526 -3.536149
  H 2.789503 -1.946080 -4.513939
  O 6.444448 -0.883629 -2.220241
  H 0.482082 -0.052212 1.096153
  H 1.204061 -0.665359 -0.589086
  H 0.760431 1.033620 -0.261493
  H 3.930311 1.464312 1.445385
  H 3.873193 -0.172723 2.040103
  H 1.661435 0.285937 3.118815
  H 1.701805 1.935011 2.489662
  H 2.231132 -0.614012 -1.267637
  H 5.189933 -0.031099 -0.234804
  H 4.967382 -2.422649 -3.523630
  H 4.934831 -0.830689 -4.214079
  H 2.556047 -0.540891 -3.484684
  H 2.591208 -2.178076 -2.784488
  H 6.897377 -0.532320 -1.432946
 26
 40.562899
  C 1.127233 0.098228 0.246337
  C 2.563029 0.201960 0.457253
  C 3.239586 0.665740 1.688577
  C 2.303433 1.124576 2.806236
  H 2.884530 1.462503 3.667219
  C 3.164651 -0.292932 -0.698278
  C 4.515806 -0.407663 -1.000756
  C 5.121882 -0.891687 -2.149562
  C 4.521759 -1.423960 -3.403060
  C 3.013614 -1.505674 -3.553044
  H 2.784793 -1.910784 -4.536766
  O 6.437132 -0.908589 -2.219964
  H 0.512696 -0.134636 1.093184
  H 1.269530 -0.652846 -0.630488
  H 0.739597 1.010082 -0.203185
  H 3.919144 1.487548 1.431305
  H 3.882123 -0.145063 2.056696
  H 1.658105 0.308012 3.136129
  H 1.674638 1.952680 2.472391
  H 2.181350 -0.619100 -1.226518
  H 5.199356 -0.074462 -0.221803
  H 4.957596 -2.421190 -3.550785
  H 4.935866 -0.814324 -4.217871
  H 2.561425 -0.525589 -3.484204
  H 2.585905 -2.170396 -2.815669
  H 6.900009 -0.562961 -1.410960
 26
 51.164882
  C 1.119817 0.062605 0.270856
  C 2.560677 0.183095 0.461512
  C 3.237992 0.686509 1.670732
  C 2.304485 1.152725 2.780970
  H 2.883255 1.524067 3.622800
  C 3.167916 -0.315780 -0.688929
  C 4.520153 -0.437553 -0.987886
  C 5.126521 -0.908015 -2.137551
  C 4.524906 -1.407640 -3.399481
  C 3.013092 -1.463247 -3.551292
  H 2.779132 -1.844383 -4.544113
  O 6.452337 -0.942022 -2.203948
  H 0.520902 -0.219995 1.127768
  H 1.294252 -0.677240 -0.675464
  H 0.698234 0.973951 -0.150687
  H 3.898596 1.514671 1.387356
  H 3.897249 -0.101714 2.052040
  H 1.682839 0.335426 3.137264
  H 1.657685 1.954388 2.433791
  H 2.125617 -0.650084 -1.213435
  H 5.202806 -0.134949 -0.196203
  H 4.946315 -2.405133 -3.564629
  H 4.948750 -0.789768 -4.198976
  H 2.573888 -0.473828 -3.461675
  H 2.573029 -2.140374 -2.824769
  H 6.905742 -0.624028 -1.406237
 26
 60.670848
  C 1.113373 0.012599 0.304237
  C 2.555715 0.158109 0.463543
  C 3.237964 0.717853 1.649777
  C 2.305353 1.197696 2.758431
  H 2.888779 1.617035 3.582603
  C 3.170115 -0.350910 -0.675148
  C 4.518595 -0.486155 -0.967436
  C 5.129514 -0.935999 -2.129485
  C 4.529618 -1.385497 -3.406072
  C 3.016825 -1.409397 -3.560521
  H 2.778759 -1.748876 -4.560922
  O 6.450700 -0.988469 -2.190879
  H 0.542472 -0.307933 1.169994
  H 1.305978 -0.722817 -0.702500
  H 0.651552 0.910870 -0.105054
  H 3.872353 1.552869 1.329662
  H 3.920277 -0.040029 2.047613
  H 1.710309 0.374788 3.153685
  H 1.629659 1.970549 2.392417
  H 2.074253 -0.692554 -1.202942
  H 5.197001 -0.224208 -0.159946
  H 4.935371 -2.383892 -3.600984
  H 4.966294 -0.748423 -4.182728
  H 2.594922 -0.417215 -3.435228
  H 2.564768 -2.104358 -2.859008
  H 6.906693 -0.695846 -1.377142
 26
 69.168472
  C 1.104373 -0.034697 0.355259
  C 2.545097 0.132356 0.471824
  C 3.237339 0.752926 1.627727
  C 2.315730 1.248378 2.732723
  H 2.898213 1.711580 3.519110
  C 3.164979 -0.386183 -0.650003
  C 4.516682 -0.537908 -0.943698
  C 5.127791 -0.958804 -2.103477
  C 4.532113 -1.359234 -3.417284
  C 3.019481 -1.354359 -3.593639
  H 2.787578 -1.652612 -4.621155
  O 6.451211 -1.028305 -2.148013
  H 0.571624 -0.371697 1.227588
  H 1.297536 -0.787112 -0.708426
  H 0.603036 0.837428 -0.061442
  H 3.841517 1.591635 1.263917
  H 3.946057 0.027296 2.040809
  H 1.755233 0.429498 3.171203
  H 1.614559 1.984236 2.353564
  H 2.018893 -0.751275 -1.187198
  H 5.192577 -0.319531 -0.118463
  H 4.925743 -2.356703 -3.643737
  H 4.988576 -0.699988 -4.165271
  H 2.610347 -0.361520 -3.432813
  H 2.548900 -2.070656 -2.927787
  H 6.897572 -0.766281 -1.320192
 26
 78.246269
  C 1.097302 -0.051716 0.388033
  C 2.534582 0.115994 0.465895
  C 3.233920 0.773881 1.607124
  C 2.319107 1.282583 2.708763
  H 2.905918 1.773084 3.476228
  C 3.172700 -0.404015 -0.635629
  C 4.520787 -0.565358 -0.929016
  C 5.133954 -0.972615 -2.093948
  C 4.533447 -1.338832 -3.420870
  C 3.023618 -1.307783 -3.589171
  H 2.784983 -1.573589 -4.612818
  O 6.454768 -1.058320 -2.137094
  H 0.584713 -0.393441 1.278436
  H 1.277301 -0.853447 -0.753554
  H 0.575846 0.791265 -0.044098
  H 3.819600 1.609430 1.218198
  H 3.956589 0.065637 2.030666
  H 1.775815 0.467186 3.174864
  H 1.603133 2.000591 2.320453
  H 1.963289 -0.814480 -1.215051
  H 5.191275 -0.374583 -0.093530
  H 4.914171 -2.340974 -3.672657
  H 4.999430 -0.665842 -4.158528
  H 2.630007 -0.315814 -3.400913
  H 2.546855 -2.033746 -2.941227
  H 6.902165 -0.817518 -1.300462
 26
 86.460728
  C 1.074802 -0.066360 0.448434
  C 2.515094 0.097309 0.466555
  C 3.233015 0.796193 1.577688
  C 2.335025 1.325055 2.685115
  H 2.936939 1.848079 3.426112
  C 3.165186 -0.426289 -0.617643
  C 4.506384 -0.597981 -0.919988
  C 5.127448 -0.986858 -2.087035
  C 4.548489 -1.310882 -3.420534
  C 3.044157 -1.257854 -3.610197
  H 2.819295 -1.490526 -4.642299
  O 6.452802 -1.090157 -2.119794
  H 0.594715 -0.399306 1.361917
  H 1.221147 -0.944165 -0.780051
  H 0.524578 0.740928 -0.009053
  H 3.797017 1.627903 1.150545
  H 3.971690 0.108849 2.004261
  H 1.814162 0.517119 3.189372
  H 1.600003 2.022876 2.293365
  H 1.872886 -0.901523 -1.239155
  H 5.173454 -0.441237 -0.070061
  H 4.921471 -2.308492 -3.690513
  H 5.032494 -0.624606 -4.130389
  H 2.658895 -0.269898 -3.399488
  H 2.551177 -1.996616 -2.993121
  H 6.891761 -0.877426 -1.278223
 26
 93.238606
  C 1.063983 -0.078928 0.498249
  C 2.498000 0.075126 0.461438
  C 3.230851 0.818730 1.544216
  C 2.346661 1.372889 2.655247
  H 2.959023 1.924602 3.362942
  C 3.171179 -0.450280 -0.598043
  C 4.504213 -0.631980 -0.906754
  C 5.130897 -1.002046 -2.076168
  C 4.556204 -1.278551 -3.422220
  C 3.056995 -1.193913 -3.611207
  H 2.827970 -1.387921 -4.655766
  O 6.454846 -1.127071 -2.102480
  H 0.615532 -0.388123 1.427896
  H 1.166656 -1.064604 -0.820872
  H 0.481723 0.685809 -0.002337
  H 3.775634 1.644586 1.077108
  H 3.982136 0.152100 1.976155
  H 1.845638 0.574008 3.200049
  H 1.593737 2.052085 2.258185
  H 1.795425 -1.023895 -1.278402
  H 5.163314 -0.511655 -0.044626
  H 4.910521 -2.266261 -3.718039
  H 5.050585 -0.584074 -4.103449
  H 2.686657 -0.205884 -3.364989
  H 2.551307 -1.947744 -3.019279
  H 6.890210 -0.945061 -1.253249
 26
 96.945619
  C 1.053332 -0.113004 0.568069
  C 2.471455 0.032284 0.454073
  C 3.224741 0.856820 1.483379
  C 2.363586 1.453433 2.586768
  H 2.990168 2.055869 3.237728
  C 3.176578 -0.499467 -0.557770
  C 4.497900 -0.699706 -0.879963
  C 5.131848 -1.032000 -2.053785
  C 4.565160 -1.215286 -3.421944
  C 3.069111 -1.072276 -3.612333
  H 2.839333 -1.188834 -4.665829
  O 6.451192 -1.200916 -2.068185
  H 0.643181 -0.371132 1.530470
  H 1.100921 -1.271293 -0.826968
  H 0.424001 0.552599 -0.004826
  H 3.734054 1.663918 0.950240
  H 3.999320 0.227424 1.927940
  H 1.901310 0.680802 3.193696
  H 1.585106 2.093488 2.180417
  H 1.713599 -1.232738 -1.295329
  H 5.145375 -0.650848 0.000120
  H 4.891966 -2.196914 -3.775068
  H 5.089230 -0.496161 -4.059104
  H 2.724563 -0.095745 -3.299956
  H 2.540352 -1.846812 -3.076561
  H 6.879946 -1.077539 -1.205554
