 25
 0.000000
  C 1.003719 0.115523 0.342307
  C 2.478554 0.129951 0.365001
  C 3.239772 0.601933 1.542495
  C 2.448159 1.085728 2.754180
  C 3.392624 1.532493 3.866479
  C 3.135016 -0.327071 -0.775142
  C 4.520775 -0.394165 -0.942057
  C 5.158495 -0.849190 -2.068195
  C 4.549466 -1.350556 -3.299267
  H 3.466202 -1.358180 -3.310899
  H 6.240323 -0.847627 -2.071790
  H 0.555124 0.471576 1.261792
  H 0.646577 -0.897653 0.145999
  H 0.635274 0.725956 -0.484990
  H 3.902234 1.413652 1.218367
  H 3.904785 -0.207481 1.866978
  H 1.812657 0.284904 3.136545
  H 1.809913 1.927286 2.478835
  H 4.029899 0.712680 4.190363
  H 2.825795 1.876451 4.728126
  H 4.027253 2.351093 3.534520
  H 2.511966 -0.657004 -1.592708
  H 5.140076 -0.060007 -0.122958
  H 4.925132 -2.359642 -3.490092
  H 4.920973 -0.758156 -4.140025
 25
 0.043624
  C 1.010263 0.261258 0.295888
  C 2.478745 0.209178 0.330665
  C 3.238252 0.597469 1.536514
  C 2.444292 1.048506 2.757349
  C 3.380940 1.362437 3.919900
  C 3.133200 -0.263910 -0.803310
  C 4.509144 -0.180429 -1.047828
  C 5.146174 -0.692617 -2.152121
  C 4.571735 -1.536944 -3.196875
  H 3.528135 -1.786253 -3.044078
  H 6.198926 -0.467823 -2.264460
  H 0.596694 0.917646 1.053573
  H 0.609326 -0.740649 0.472915
  H 0.659846 0.562780 -0.689207
  H 3.941740 1.393209 1.262764
  H 3.874386 -0.247050 1.827181
  H 1.750659 0.265195 3.066418
  H 1.866996 1.945060 2.524215
  H 3.955270 0.484449 4.206498
  H 2.811953 1.687867 4.787065
  H 4.075872 2.157025 3.657905
  H 2.509303 -0.690188 -1.577084
  H 5.113299 0.376491 -0.346047
  H 5.159276 -2.454015 -3.277152
  H 4.696533 -1.045802 -4.165055
 25
 3.254271
  C 1.024772 0.397820 0.246820
  C 2.473522 0.181870 0.342141
  C 3.231645 0.482900 1.571143
  C 2.460699 1.060672 2.752522
  C 3.382544 1.248017 3.953752
  C 3.129436 -0.339577 -0.772802
  C 4.415346 0.006713 -1.185019
  C 5.063691 -0.500327 -2.284098
  C 4.660210 -1.655755 -3.084866
  H 3.765931 -2.149987 -2.722105
  H 5.978054 -0.011941 -2.593249
  H 0.691799 1.174661 0.927891
  H 0.482851 -0.514660 0.508674
  H 0.756287 0.656586 -0.774030
  H 4.061941 1.153797 1.316840
  H 3.728747 -0.441361 1.890670
  H 1.646529 0.392103 3.035253
  H 2.032801 2.028892 2.485927
  H 3.806049 0.298247 4.272556
  H 2.831343 1.667119 4.791824
  H 4.199502 1.926029 3.717126
  H 2.545797 -0.983270 -1.419847
  H 4.896766 0.820202 -0.658856
  H 5.483162 -2.372059 -3.117227
  H 4.516446 -1.346925 -4.122755
 25
 10.454106
  C 1.085209 0.552543 0.196733
  C 2.495508 0.187455 0.361953
  C 3.231432 0.418719 1.613024
  C 2.465419 1.049022 2.770996
  C 3.352387 1.144984 4.010030
  C 3.160591 -0.403268 -0.728454
  C 4.282062 0.131677 -1.347604
  C 4.936947 -0.399091 -2.432090
  C 4.745165 -1.736238 -3.001058
  H 4.025550 -2.340033 -2.457474
  H 5.668939 0.223636 -2.927598
  H 0.851609 1.435551 0.786756
  H 0.422201 -0.237869 0.556623
  H 0.873672 0.732357 -0.853667
  H 4.122244 1.021213 1.385162
  H 3.647982 -0.543082 1.935451
  H 1.586450 0.448909 3.011123
  H 2.131497 2.053135 2.501969
  H 3.681241 0.159050 4.332638
  H 2.805567 1.601356 4.832056
  H 4.233062 1.753445 3.813886
  H 2.694418 -1.281834 -1.159371
  H 4.601691 1.107261 -1.008220
  H 5.703737 -2.256988 -3.025614
  H 4.437411 -1.649116 -4.045040
 25
 21.106452
  C 1.200214 0.715479 0.146382
  C 2.558493 0.239232 0.381672
  C 3.238462 0.391839 1.668149
  C 2.457798 1.046638 2.802558
  C 3.287341 1.059823 4.082974
  C 3.244040 -0.414363 -0.692216
  C 4.131833 0.206067 -1.543628
  C 4.787942 -0.382243 -2.603317
  C 4.787025 -1.810030 -2.955169
  H 4.229331 -2.424666 -2.259568
  H 5.351523 0.263861 -3.259014
  H 1.011810 1.624425 0.712671
  H 0.464659 -0.009743 0.507699
  H 1.031790 0.874668 -0.916006
  H 4.176019 0.941005 1.498105
  H 3.583456 -0.599406 1.982712
  H 1.531926 0.499208 2.985999
  H 2.201575 2.075649 2.543075
  H 3.537077 0.049546 4.397476
  H 2.731306 1.532686 4.887917
  H 4.212542 1.614420 3.943719
  H 2.984973 -1.453971 -0.856330
  H 4.284889 1.268498 -1.401453
  H 5.815136 -2.173743 -3.004392
  H 4.380635 -1.939523 -3.960966
 25
 15.705352
  C 1.340187 0.909869 0.098443
  C 2.649918 0.324579 0.368161
  C 3.262092 0.377442 1.705283
  C 2.452285 1.029932 2.822840
  C 3.210300 0.956332 4.143768
  C 3.343353 -0.357751 -0.663973
  C 3.964226 0.250262 -1.749845
  C 4.624708 -0.422361 -2.747746
  C 4.778704 -1.876583 -2.893627
  H 4.329978 -2.448081 -2.087355
  H 5.088201 0.173522 -3.521329
  H 1.172140 1.833414 0.648342
  H 0.598794 0.200003 0.476250
  H 1.143741 1.035636 -0.963762
  H 4.225930 0.890686 1.599666
  H 3.543594 -0.640567 2.008598
  H 1.493781 0.524451 2.936267
  H 2.260393 2.077569 2.590660
  H 3.393932 -0.075864 4.432080
  H 2.634428 1.428561 4.936813
  H 4.167025 1.468309 4.073731
  H 3.391664 -1.434766 -0.576047
  H 3.949610 1.333225 -1.792827
  H 5.840659 -2.124147 -2.965276
  H 4.339479 -2.193102 -3.844090
 25
 5.995298
  C 1.521101 1.103079 0.060060
  C 2.774248 0.409802 0.363346
  C 3.295861 0.367059 1.744049
  C 2.447386 1.022600 2.828300
  C 3.101070 0.852170 4.196986
  C 3.467671 -0.284209 -0.634702
  C 3.811719 0.225065 -1.890984
  C 4.449148 -0.503652 -2.863758
  C 4.745441 -1.938039 -2.855442
  H 4.438061 -2.449217 -1.950496
  H 4.765014 0.027945 -3.752481
  H 1.433142 2.055648 0.578170
  H 0.715695 0.477029 0.460035
  H 1.338497 1.205339 -1.005339
  H 4.288507 0.833939 1.733542
  H 3.493253 -0.675967 2.021086
  H 1.453786 0.571309 2.850396
  H 2.331567 2.089346 2.629608
  H 3.204488 -0.199427 4.452322
  H 2.496626 1.325708 4.965867
  H 4.087716 1.308445 4.218043
  H 3.819952 -1.275677 -0.383183
  H 3.620948 1.271444 -2.076573
  H 5.813781 -2.089240 -3.018410
  H 4.257098 -2.404979 -3.712792
 25
 0.667773
  C 1.737200 1.355700 0.025074
  C 2.894525 0.516469 0.353628
  C 3.299967 0.339517 1.764446
  C 2.453288 1.031372 2.823538
  C 2.974186 0.720987 4.222931
  C 3.591242 -0.188950 -0.620301
  C 3.693423 0.164961 -1.975178
  C 4.269966 -0.624007 -2.937863
  C 4.714745 -2.010958 -2.799142
  H 4.594672 -2.417762 -1.803261
  H 4.390848 -0.194302 -3.926124
  H 1.799526 2.330965 0.506808
  H 0.848336 0.881112 0.451387
  H 1.575900 1.454371 -1.043438
  H 4.338117 0.679717 1.860837
  H 3.347088 -0.732615 1.985429
  H 1.416755 0.699115 2.749530
  H 2.469811 2.112492 2.677484
  H 2.940859 -0.347717 4.424001
  H 2.367148 1.222093 4.972503
  H 4.000974 1.060105 4.342043
  H 4.159997 -1.047657 -0.289744
  H 3.338646 1.141182 -2.275034
  H 5.757693 -2.090511 -3.112585
  H 4.163730 -2.630956 -3.508578
 25
 2.509197
  C 1.920585 1.371076 -0.058026
  C 3.086004 0.586107 0.364604
  C 3.385574 0.387060 1.798889
  C 2.437281 1.031651 2.800393
  C 2.831175 0.675977 4.230526
  C 3.879690 -0.049704 -0.575490
  C 3.924241 0.256230 -1.954345
  C 4.226822 -0.645920 -2.936317
  C 4.342374 -2.095440 -2.768665
  H 4.201799 -2.425436 -1.745687
  H 4.324586 -0.279692 -3.950037
  H 1.761859 2.246281 0.566248
  H 1.029576 0.746565 0.058524
  H 1.978003 1.623724 -1.111385
  H 4.407163 0.738417 1.988100
  H 3.429012 -0.690659 1.996364
  H 1.415283 0.694930 2.618844
  H 2.457616 2.118424 2.694424
  H 2.791125 -0.398977 4.390653
  H 2.152683 1.145543 4.938592
  H 3.839190 1.018354 4.454702
  H 4.548775 -0.825543 -0.225451
  H 3.792583 1.290809 -2.242417
  H 5.318191 -2.419718 -3.138531
  H 3.618803 -2.597233 -3.413199
 25
 8.761067
  C 2.077709 1.252354 -0.154083
  C 3.238435 0.538400 0.391888
  C 3.469507 0.413048 1.856600
  C 2.409398 1.012087 2.767251
  C 2.714228 0.713817 4.231718
  C 4.095349 -0.060880 -0.497132
  C 4.135055 0.296713 -1.886018
  C 4.200873 -0.595998 -2.900202
  C 3.980371 -2.037735 -2.766318
  H 3.808676 -2.337458 -1.736153
  H 4.327910 -0.229259 -3.909067
  H 1.754731 2.100701 0.433175
  H 1.235412 0.559425 -0.232188
  H 2.304991 1.467609 -1.206024
  H 4.449647 0.859132 2.096040
  H 3.581292 -0.648608 2.087004
  H 1.432677 0.594617 2.518964
  H 2.362213 2.098145 2.633655
  H 2.732884 -0.355960 4.414991
  H 1.950540 1.144854 4.875560
  H 3.675516 1.133642 4.524450
  H 4.788839 -0.816596 -0.155632
  H 4.340218 1.331939 -2.108307
  H 4.836027 -2.565158 -3.178015
  H 3.133370 -2.343512 -3.382144
 25
 17.883154
  C 2.084559 1.071195 -0.163046
  C 3.216078 0.374323 0.465212
  C 3.454124 0.348135 1.924982
  C 2.419356 1.073673 2.781796
  C 2.719609 0.892903 4.266108
  C 4.066193 -0.243737 -0.426216
  C 4.125505 0.265445 -1.771271
  C 4.172105 -0.504844 -2.890934
  C 3.917637 -1.951140 -2.922048
  H 3.653358 -2.350916 -1.948580
  H 4.342362 -0.024946 -3.845414
  H 1.696605 1.922917 0.374827
  H 1.272272 0.392692 -0.440452
  H 2.461117 1.204694 -1.207411
  H 4.448221 0.751979 2.131884
  H 3.497538 -0.704359 2.234152
  H 1.419050 0.684265 2.568599
  H 2.426607 2.138096 2.555443
  H 2.655453 -0.153507 4.551769
  H 2.006317 1.449282 4.867722
  H 3.719412 1.252943 4.509111
  H 4.742844 -1.033732 -0.128859
  H 4.513172 1.276432 -1.843615
  H 4.812679 -2.449979 -3.299712
  H 3.137372 -2.192507 -3.642316
 25
 37.278796
  C 2.169600 0.955048 -0.175605
  C 3.287447 0.330311 0.489787
  C 3.496116 0.351713 1.967658
  C 2.398370 1.043310 2.771209
  C 2.658262 0.911677 4.267999
  C 4.181820 -0.225553 -0.380922
  C 4.059024 0.325512 -1.735546
  C 4.038825 -0.464242 -2.871336
  C 3.793980 -1.906036 -2.859451
  H 3.628724 -2.293113 -1.858657
  H 4.144290 0.009306 -3.837541
  H 1.690482 1.790500 0.308070
  H 1.470645 0.326866 -0.726214
  H 2.794415 0.985744 -1.345485
  H 4.458083 0.819331 2.192130
  H 3.574192 -0.689798 2.297219
  H 1.429897 0.597536 2.536255
  H 2.360166 2.104001 2.517690
  H 2.676130 -0.133682 4.568758
  H 1.878356 1.412924 4.836075
  H 3.612458 1.360191 4.536364
  H 4.967846 -0.910835 -0.115063
  H 4.576835 1.275564 -1.851863
  H 4.643703 -2.416463 -3.318912
  H 2.948003 -2.156585 -3.502924
 25
 42.393844
  C 2.068338 0.906473 -0.119073
  C 3.231390 0.365751 0.478349
  C 3.490091 0.394921 1.958305
  C 2.378836 1.011137 2.803747
  C 2.699620 0.887625 4.289221
  C 4.149135 -0.139402 -0.403089
  C 3.981184 0.378916 -1.781503
  C 4.026693 -0.489974 -2.893878
  C 3.838392 -1.928017 -2.802938
  H 3.647537 -2.262140 -1.787267
  H 4.156129 -0.065359 -3.879801
  H 1.531195 1.700088 0.375781
  H 1.447276 0.292146 -0.754038
  H 2.915252 0.901520 -1.588099
  H 4.425419 0.924459 2.154536
  H 3.643661 -0.641106 2.274603
  H 1.432744 0.505523 2.598851
  H 2.264190 2.068545 2.559574
  H 2.794661 -0.156390 4.580083
  H 1.910062 1.334789 4.888400
  H 3.632468 1.394582 4.526825
  H 4.975993 -0.773556 -0.134543
  H 4.519162 1.319960 -1.937752
  H 4.718778 -2.440262 -3.200574
  H 3.028271 -2.242644 -3.465301
 25
 37.846282
  C 1.845944 0.875957 -0.014733
  C 3.071202 0.429742 0.446221
  C 3.448267 0.451786 1.908754
  C 2.373934 0.970024 2.859899
  C 2.832461 0.844846 4.308837
  C 4.010074 -0.024777 -0.463597
  C 3.878492 0.410424 -1.869883
  C 4.078342 -0.552248 -2.911732
  C 3.975414 -1.981876 -2.716732
  H 3.682640 -2.249456 -1.705347
  H 4.297244 -0.193728 -3.907981
  H 1.235413 1.530732 0.582054
  H 1.329297 0.384442 -0.820948
  H 2.855707 0.873698 -1.892250
  H 4.355221 1.046529 2.041391
  H 3.698712 -0.575792 2.186066
  H 1.452392 0.399466 2.726300
  H 2.162263 2.020095 2.650722
  H 3.027528 -0.194296 4.565189
  H 2.068437 1.222124 4.984383
  H 3.743634 1.415193 4.476586
  H 4.869452 -0.599273 -0.158867
  H 4.461716 1.324262 -2.050797
  H 4.924404 -2.466937 -2.965233
  H 3.276549 -2.401198 -3.445973
 25
 33.808583
  C 1.619684 0.770108 0.112999
  C 2.883535 0.402238 0.457333
  C 3.385786 0.439482 1.884098
  C 2.396516 0.963343 2.920335
  C 3.002166 0.908250 4.318564
  C 3.793837 -0.050093 -0.505341
  C 3.710465 0.359577 -1.912635
  C 4.071274 -0.590796 -2.937668
  C 4.251683 -2.005264 -2.713720
  H 3.963798 -2.318515 -1.713831
  H 4.235657 -0.210990 -3.937926
  H 0.960313 1.251420 0.807043
  H 1.181754 0.484520 -0.826603
  H 2.723096 0.814020 -2.098271
  H 4.287148 1.048977 1.924554
  H 3.674590 -0.580663 2.159142
  H 1.484991 0.360863 2.904196
  H 2.130413 1.996951 2.694061
  H 3.254970 -0.114670 4.590822
  H 2.297820 1.290489 5.054483
  H 3.904694 1.508472 4.372193
  H 4.663489 -0.604654 -0.187193
  H 4.348269 1.251324 -2.038521
  H 5.292423 -2.291883 -2.904805
  H 3.697513 -2.564903 -3.469271
