 28
 0.000000
  C 0.977827 0.145649 0.395321
  C 2.451547 0.144811 0.397067
  C 3.236904 0.607263 1.561705
  C 2.460772 1.093800 2.779493
  H 3.144804 1.403465 3.559875
  C 3.070330 -0.318535 -0.760655
  C 4.452722 -0.407355 -0.976733
  C 5.102369 -0.859998 -2.099045
  C 4.604830 -1.379702 -3.386670
  C 3.118357 -1.505625 -3.693692
  C 2.912193 -2.072331 -5.097011
  H 6.183424 -0.854048 -2.094237
  H 0.542541 0.509723 1.318582
  H 0.607510 -0.864782 0.216252
  H 0.607030 0.762987 -0.425159
  H 3.897671 1.415362 1.227671
  H 3.894765 -0.211158 1.875634
  H 1.826103 0.302778 3.174194
  H 1.829010 1.941467 2.521336
  H 2.410578 -0.633983 -1.551226
  H 5.084768 -0.079936 -0.160979
  H 5.068059 -2.367449 -3.512961
  H 5.065897 -0.754855 -4.163318
  H 2.637936 -0.527214 -3.647735
  H 2.640084 -2.178943 -2.980831
  H 3.355521 -1.424404 -5.849695
  H 1.850462 -2.161034 -5.313404
  H 3.357682 -3.060220 -5.189440
 28
 0.279645
  C 0.990288 0.417866 0.329503
  C 2.437660 0.159224 0.399724
  C 3.215355 0.400041 1.632167
  C 2.470642 0.992231 2.820257
  H 3.165003 1.135533 3.644537
  C 3.043260 -0.303532 -0.767958
  C 4.424533 -0.368539 -1.000152
  C 5.057299 -0.688780 -2.177326
  C 4.572017 -1.199585 -3.464899
  C 3.126735 -1.639824 -3.658557
  C 2.951788 -2.306224 -5.021307
  H 6.131382 -0.540945 -2.177973
  H 0.554951 0.705621 1.277282
  H 0.466241 -0.451511 -0.067416
  H 0.822384 1.218460 -0.397696
  H 4.064489 1.048207 1.390682
  H 3.664007 -0.554126 1.934370
  H 1.680314 0.331384 3.168186
  H 2.039883 1.959746 2.574775
  H 2.380454 -0.558592 -1.577472
  H 5.073948 -0.056872 -0.193696
  H 5.233952 -2.036739 -3.728463
  H 4.820661 -0.440270 -4.220815
  H 2.458281 -0.778583 -3.615635
  H 2.846320 -2.351784 -2.880840
  H 3.214151 -1.622962 -5.826099
  H 1.918337 -2.612363 -5.163711
  H 3.578373 -3.191522 -5.106871
 28
 3.004388
  C 1.064870 0.513899 0.257569
  C 2.451565 0.058170 0.438934
  C 3.180657 0.264967 1.705120
  C 2.477440 1.072576 2.785825
  H 3.132272 1.166071 3.648578
  C 3.061218 -0.499515 -0.684198
  C 4.429324 -0.437336 -0.973484
  C 5.004849 -0.583352 -2.210295
  C 4.503967 -1.087229 -3.496065
  C 3.139899 -1.755232 -3.613411
  C 2.954896 -2.343286 -5.010002
  H 6.040746 -0.268083 -2.273843
  H 0.576635 0.800364 1.180368
  H 0.468442 -0.226899 -0.271994
  H 1.114693 1.387949 -0.398658
  H 4.151266 0.722870 1.492731
  H 3.424941 -0.728685 2.103253
  H 1.564265 0.588283 3.121277
  H 2.237531 2.072504 2.435576
  H 2.399624 -0.853660 -1.459372
  H 5.082292 -0.070703 -0.192805
  H 5.269486 -1.790530 -3.854899
  H 4.563643 -0.260193 -4.217286
  H 2.343675 -1.027991 -3.448743
  H 3.052086 -2.556612 -2.878376
  H 3.020581 -1.568615 -5.770499
  H 1.980687 -2.817591 -5.095570
  H 3.712555 -3.094275 -5.221483
 28
 7.753591
  C 1.173708 0.550346 0.147478
  C 2.485385 -0.033208 0.472404
  C 3.152201 0.194062 1.766626
  C 2.479963 1.160758 2.729569
  H 3.068648 1.228739 3.641705
  C 3.113005 -0.690115 -0.587951
  C 4.457581 -0.506497 -0.935738
  C 4.942200 -0.502983 -2.215728
  C 4.418065 -1.006860 -3.494908
  C 3.138463 -1.831477 -3.564699
  C 2.915017 -2.343402 -4.985309
  H 5.925453 -0.055864 -2.335679
  H 0.642779 0.944230 1.003833
  H 0.545384 -0.145302 -0.405023
  H 1.404531 1.372387 -0.539448
  H 4.184813 0.510870 1.594051
  H 3.246044 -0.788188 2.250628
  H 1.483357 0.824089 3.008737
  H 2.407533 2.157247 2.298675
  H 2.465351 -1.152952 -1.317257
  H 5.110925 -0.092601 -0.176721
  H 5.234972 -1.601517 -3.921818
  H 4.334622 -0.154306 -4.179669
  H 2.277217 -1.222027 -3.291720
  H 3.204887 -2.686116 -2.889225
  H 2.819148 -1.516786 -5.686185
  H 2.005140 -2.936499 -5.036200
  H 3.742195 -2.970793 -5.309087
 28
 13.186379
  C 1.270341 0.554135 0.040230
  C 2.501171 -0.113754 0.495582
  C 3.103201 0.122135 1.818781
  C 2.538832 1.269042 2.644624
  H 3.018546 1.281928 3.620808
  C 3.150489 -0.837646 -0.513346
  C 4.475060 -0.572507 -0.899826
  C 4.864972 -0.438445 -2.202379
  C 4.302528 -0.908414 -3.479518
  C 3.134338 -1.882845 -3.519910
  C 2.891750 -2.359028 -4.950139
  H 5.802826 0.086989 -2.350921
  H 0.695213 1.014142 0.830475
  H 0.642881 -0.101135 -0.562068
  H 1.651842 1.330341 -0.634736
  H 4.186037 0.239788 1.711383
  H 2.987142 -0.814443 2.381381
  H 1.470823 1.162384 2.808720
  H 2.726042 2.224479 2.162655
  H 2.520473 -1.362448 -1.213485
  H 5.130424 -0.145000 -0.149666
  H 5.148540 -1.367119 -4.007794
  H 4.057441 -0.027982 -4.085809
  H 2.223023 -1.399742 -3.171771
  H 3.347029 -2.748829 -2.892697
  H 2.653124 -1.522440 -5.603351
  H 2.060477 -3.060275 -4.981345
  H 3.768047 -2.861426 -5.347358
 28
 19.682692
  C 1.413433 0.601605 -0.089531
  C 2.540996 -0.147562 0.492840
  C 3.118243 0.165806 1.809390
  C 2.468678 1.293498 2.594911
  H 2.992675 1.425043 3.537618
  C 3.186237 -0.970965 -0.442265
  C 4.506482 -0.690163 -0.849656
  C 4.821720 -0.449656 -2.152296
  C 4.246188 -0.894751 -3.437443
  C 3.127107 -1.927303 -3.481188
  C 2.799363 -2.292418 -4.927267
  H 5.736663 0.113334 -2.305057
  H 0.868034 1.203867 0.626037
  H 0.736480 -0.036934 -0.651846
  H 1.910664 1.251588 -0.822059
  H 4.190591 0.355080 1.701879
  H 3.065603 -0.760580 2.397780
  H 1.429445 1.074453 2.826321
  H 2.518243 2.231210 2.047124
  H 2.560504 -1.549845 -1.105711
  H 5.179469 -0.298328 -0.097809
  H 5.100734 -1.295435 -3.998610
  H 3.939509 -0.007269 -4.006133
  H 2.219692 -1.528247 -3.025974
  H 3.431226 -2.830168 -2.949683
  H 2.446863 -1.422477 -5.477585
  H 2.022487 -3.051262 -4.960357
  H 3.675362 -2.687072 -5.438594
 28
 27.313249
  C 1.573649 0.525497 -0.239716
  C 2.620663 -0.222893 0.483381
  C 3.056603 0.093829 1.849128
  C 2.456263 1.334625 2.492803
  H 2.881964 1.469389 3.483905
  C 3.326605 -1.095734 -0.369521
  C 4.600946 -0.679893 -0.835208
  C 4.767274 -0.339832 -2.141283
  C 4.163657 -0.811645 -3.408056
  C 3.064509 -1.865721 -3.411189
  C 2.699749 -2.246751 -4.843220
  H 5.620815 0.298393 -2.337803
  H 0.992738 1.193975 0.383914
  H 0.925803 -0.121096 -0.828867
  H 2.173121 1.098275 -0.963001
  H 4.152352 0.147824 1.874747
  H 2.817077 -0.784013 2.460293
  H 1.378728 1.242706 2.607441
  H 2.676022 2.225077 1.909200
  H 2.742770 -1.747309 -1.003085
  H 5.280106 -0.250971 -0.109721
  H 5.014889 -1.209582 -3.982086
  H 3.823947 0.061018 -3.977508
  H 2.164502 -1.481577 -2.928555
  H 3.402528 -2.758245 -2.887881
  H 2.365068 -1.375128 -5.404839
  H 1.900927 -2.979253 -4.848635
  H 3.554080 -2.678173 -5.361423
 28
 37.802489
  C 1.759896 0.468650 -0.386712
  C 2.657905 -0.310386 0.476528
  C 3.030669 0.076218 1.841830
  C 2.424242 1.365048 2.378740
  H 2.779699 1.539653 3.390296
  C 3.401374 -1.243494 -0.288306
  C 4.645488 -0.749595 -0.789933
  C 4.661583 -0.263670 -2.055148
  C 4.062396 -0.721502 -3.337481
  C 3.029766 -1.843132 -3.351598
  C 2.615035 -2.163781 -4.785125
  H 5.474628 0.431147 -2.252664
  H 1.185121 1.235188 0.116625
  H 1.134054 -0.139551 -1.033083
  H 2.503302 0.905380 -1.085663
  H 4.122607 0.111314 1.914926
  H 2.742286 -0.761036 2.491887
  H 1.340300 1.308395 2.416377
  H 2.714502 2.219007 1.768480
  H 2.846061 -1.938051 -0.904463
  H 5.348152 -0.344187 -0.071344
  H 4.921926 -1.052387 -3.936035
  H 3.655278 0.145647 -3.867128
  H 2.134999 -1.549255 -2.803316
  H 3.451751 -2.744822 -2.900901
  H 2.198825 -1.287309 -5.273392
  H 1.862538 -2.948338 -4.797497
  H 3.465239 -2.505702 -5.368265
 28
 45.101914
  C 1.892260 0.572613 -0.443473
  C 2.701961 -0.244391 0.462712
  C 3.027432 0.102066 1.847443
  C 2.377132 1.363254 2.401084
  H 2.650287 1.485579 3.446235
  C 3.377327 -1.260880 -0.275588
  C 4.637903 -0.836040 -0.812988
  C 4.613104 -0.269307 -2.046354
  C 3.988442 -0.682263 -3.334376
  C 3.042913 -1.875894 -3.359765
  C 2.601346 -2.177260 -4.791850
  H 5.442053 0.412714 -2.231683
  H 1.373428 1.403658 0.009273
  H 1.243878 0.000465 -1.107229
  H 2.699661 0.902623 -1.150533
  H 4.114425 0.149699 1.961191
  H 2.727135 -0.759750 2.458300
  H 1.293639 1.307794 2.345752
  H 2.713551 2.244227 1.862415
  H 2.772252 -1.942526 -0.858164
  H 5.376866 -0.477875 -0.102830
  H 4.837918 -0.922225 -3.983386
  H 3.497312 0.181285 -3.793930
  H 2.145723 -1.676527 -2.768157
  H 3.549323 -2.753480 -2.955839
  H 2.058779 -1.337177 -5.215411
  H 1.950347 -3.045979 -4.814893
  H 3.457860 -2.382250 -5.426414
 28
 59.418665
  C 2.024347 0.510193 -0.542791
  C 2.674082 -0.347619 0.429906
  C 2.922270 0.009083 1.827330
  C 2.376605 1.353690 2.286737
  H 2.655224 1.523448 3.323696
  C 3.490168 -1.322726 -0.240733
  C 4.690331 -0.732129 -0.782919
  C 4.525977 -0.133620 -1.986022
  C 3.952546 -0.626525 -3.282725
  C 3.004747 -1.822523 -3.287785
  C 2.516650 -2.106731 -4.703659
  H 5.323201 0.573876 -2.202364
  H 1.552549 1.403789 -0.163239
  H 1.443766 0.026509 -1.326027
  H 2.950110 0.719945 -1.235621
  H 4.003608 -0.044406 2.001974
  H 2.498119 -0.788069 2.444308
  H 1.292730 1.382939 2.226102
  H 2.788038 2.163319 1.691907
  H 2.980433 -2.080879 -0.818381
  H 5.441155 -0.364585 -0.099934
  H 4.815976 -0.876691 -3.902063
  H 3.452600 0.211987 -3.785074
  H 2.120949 -1.623465 -2.668257
  H 3.518879 -2.707429 -2.914129
  H 1.970005 -1.252603 -5.106522
  H 1.854743 -2.968632 -4.712420
  H 3.355480 -2.320311 -5.368166
 28
 72.668391
  C 2.070182 0.493569 -0.508489
  C 2.673818 -0.296964 0.442159
  C 2.947959 0.041091 1.853578
  C 2.368589 1.366729 2.325404
  H 2.609952 1.514468 3.374167
  C 3.429372 -1.342565 -0.246850
  C 4.623922 -0.810831 -0.788938
  C 4.446757 -0.080926 -1.977126
  C 3.876500 -0.553426 -3.305761
  C 2.975864 -1.782872 -3.315026
  C 2.558051 -2.128433 -4.742861
  H 5.252873 0.624036 -2.158496
  H 1.633528 1.425393 -0.188239
  H 1.571824 0.058362 -1.363778
  H 3.333335 0.599342 -1.419472
  H 4.030790 0.013358 2.017020
  H 2.538684 -0.769735 2.466023
  H 1.286105 1.381490 2.227478
  H 2.786979 2.196340 1.762659
  H 2.846426 -2.049514 -0.824368
  H 5.379075 -0.460829 -0.094911
  H 4.744914 -0.780653 -3.932462
  H 3.359221 0.279249 -3.787838
  H 2.065691 -1.604705 -2.739031
  H 3.509464 -2.635979 -2.892633
  H 2.019125 -1.301763 -5.200153
  H 1.910358 -3.000958 -4.749375
  H 3.427496 -2.349923 -5.357908
 28
 60.823870
  C 1.894652 0.502589 -0.366566
  C 2.568004 -0.276217 0.494005
  C 2.971484 0.051839 1.893421
  C 2.394193 1.354262 2.423287
  H 2.733599 1.510094 3.444652
  C 3.331681 -1.263988 -0.288754
  C 4.518650 -0.750660 -0.806331
  C 4.450142 -0.009225 -2.060934
  C 3.947211 -0.567850 -3.397370
  C 2.980310 -1.745666 -3.372947
  C 2.620205 -2.169731 -4.794865
  H 5.323173 0.612456 -2.233629
  H 1.445511 1.413127 -0.004909
  H 1.464059 0.131435 -1.279078
  H 3.597184 0.648481 -1.653551
  H 4.062938 0.066820 1.967068
  H 2.637114 -0.775336 2.523186
  H 1.307151 1.326384 2.431823
  H 2.723159 2.200368 1.826307
  H 2.730724 -1.941650 -0.882689
  H 5.302513 -0.457676 -0.116240
  H 4.836285 -0.889586 -3.947548
  H 3.507383 0.253648 -3.967250
  H 2.052590 -1.474440 -2.864953
  H 3.438416 -2.594306 -2.865500
  H 2.103426 -1.368283 -5.320740
  H 1.969911 -3.039935 -4.778376
  H 3.514691 -2.427414 -5.359567
 28
 48.091380
  C 1.714941 0.547341 -0.205980
  C 2.596165 -0.156602 0.521631
  C 3.038676 0.100364 1.923546
  C 2.306143 1.248144 2.599184
  H 2.643689 1.334301 3.628060
  C 3.320534 -1.068048 -0.365431
  C 4.506492 -0.599750 -0.899268
  C 4.565290 0.014011 -2.235138
  C 4.091488 -0.677301 -3.514982
  C 2.962313 -1.694297 -3.431357
  C 2.610378 -2.215034 -4.820148
  H 5.527085 0.482418 -2.422557
  H 1.201471 1.399372 0.204764
  H 1.371354 0.215564 -1.168536
  H 3.840077 0.810236 -1.948048
  H 4.114847 0.283621 1.948848
  H 2.865282 -0.822387 2.483408
  H 1.232702 1.075432 2.610945
  H 2.507936 2.190730 2.099962
  H 2.720461 -1.793819 -0.895119
  H 5.242695 -0.204256 -0.203758
  H 4.961817 -1.189926 -3.933973
  H 3.810896 0.105531 -4.221036
  H 2.066486 -1.237097 -3.009391
  H 3.267050 -2.543419 -2.817354
  H 2.283779 -1.403641 -5.468645
  H 1.809244 -2.943468 -4.761028
  H 3.470995 -2.695215 -5.281840
 28
 40.247430
  C 1.525498 0.597549 -0.032792
  C 2.505214 -0.114145 0.557708
  C 3.081465 0.108336 1.919062
  C 2.391674 1.208125 2.711658
  H 2.889868 1.329193 3.671737
  C 3.175737 -0.939461 -0.446259
  C 4.393162 -0.507240 -0.935239
  C 4.563549 0.034450 -2.290905
  C 4.145852 -0.698500 -3.571320
  C 2.988558 -1.685737 -3.522468
  C 2.765058 -2.313335 -4.895529
  H 5.569272 0.427997 -2.430952
  H 1.034496 1.414923 0.464209
  H 1.138275 0.334710 -0.999596
  H 3.892922 0.903971 -2.118874
  H 4.147625 0.324317 1.847646
  H 2.990707 -0.838345 2.455530
  H 1.350853 0.958949 2.902707
  H 2.438521 2.158812 2.188941
  H 2.529049 -1.561690 -1.049043
  H 5.145298 -0.179967 -0.223909
  H 5.027448 -1.243352 -3.918588
  H 3.924685 0.062912 -4.320938
  H 2.067773 -1.173473 -3.234113
  H 3.203175 -2.487035 -2.815534
  H 2.543422 -1.552026 -5.639512
  H 1.930894 -3.009379 -4.864307
  H 3.648017 -2.857880 -5.218846
 28
 38.054085
  C 1.452528 0.811610 0.139224
  C 2.410958 -0.025934 0.590438
  C 3.051643 0.021304 1.931913
  C 2.552163 1.133854 2.833554
  H 3.061309 1.075550 3.792102
  C 2.970200 -0.765685 -0.528581
  C 4.213711 -0.399418 -1.009669
  C 4.402364 0.141371 -2.381839
  C 4.135079 -0.710462 -3.627596
  C 3.030930 -1.767357 -3.589813
  C 2.970323 -2.506243 -4.926224
  H 5.387490 0.581450 -2.470462
  H 1.095095 1.637857 0.728915
  H 1.009645 0.670674 -0.830069
  H 3.651820 0.959616 -2.321765
  H 4.127988 0.096058 1.839119
  H 2.852865 -0.949125 2.393449
  H 1.481594 1.047423 3.015649
  H 2.760694 2.107786 2.404653
  H 2.261850 -1.218823 -1.204425
  H 4.969030 -0.103732 -0.286840
  H 5.072459 -1.231603 -3.850974
  H 3.941406 -0.026590 -4.443871
  H 2.054650 -1.300916 -3.428453
  H 3.225581 -2.494089 -2.792538
  H 2.769710 -1.818353 -5.736492
  H 2.184420 -3.252349 -4.915604
  H 3.910562 -3.011194 -5.133328
