 22
 0.000000
  C 0.954492 0.050602 0.171495
  C 2.456310 0.056634 0.088516
  C 3.254789 -0.015607 1.376911
  C 2.471451 -0.083765 2.683619
  H 3.173377 -0.128735 3.512272
  C 3.079112 0.125676 -1.105627
  C 2.329157 0.201602 -2.404774
  H 1.256351 0.194982 -2.267934
  C 4.531315 0.131848 -1.225452
  C 5.220943 0.197472 -2.359805
  H 6.296510 0.196437 -2.355181
  H 0.604211 -0.016702 1.193481
  H 0.544384 -0.797712 -0.376757
  H 0.542569 0.962648 -0.260812
  H 3.906573 0.861981 1.427156
  H 3.901865 -0.896982 1.331912
  H 1.847969 -0.973338 2.729088
  H 1.850526 0.797910 2.822343
  H 2.598541 -0.645792 -3.035949
  H 2.600246 1.115835 -2.933605
  H 5.091370 0.077478 -0.302529
  H 4.761610 0.254275 -3.331006
 22
 5.866466
  C 0.974778 0.005288 0.180882
  C 2.432260 0.044182 0.094312
  C 3.245703 -0.037354 1.370708
  C 2.459931 -0.071832 2.679566
  H 3.161240 -0.126140 3.511090
  C 3.060380 0.119282 -1.096894
  C 2.306183 0.182019 -2.396143
  H 1.238379 0.155177 -2.261244
  C 4.508705 0.154646 -1.212352
  C 5.204122 0.227858 -2.351436
  H 6.281657 0.240472 -2.341519
  H 0.580675 -0.019822 1.174360
  H 0.527036 -0.772853 -0.394885
  H 0.836152 0.974386 -0.282650
  H 3.922366 0.821351 1.410723
  H 3.868113 -0.937298 1.329716
  H 1.813861 -0.944496 2.734313
  H 1.861223 0.826854 2.808288
  H 2.587621 -0.659548 -3.027057
  H 2.560438 1.099417 -2.926260
  H 5.065819 0.110284 -0.292499
  H 4.743882 0.274707 -3.328077
 22
 18.200487
  C 0.961678 -0.018950 0.200786
  C 2.414353 0.034906 0.108778
  C 3.240145 -0.049141 1.370742
  C 2.456803 -0.062549 2.675051
  H 3.153004 -0.120343 3.505966
  C 3.055256 0.116210 -1.101478
  C 2.294146 0.171173 -2.405062
  H 1.222982 0.133763 -2.274303
  C 4.503467 0.170806 -1.214032
  C 5.201596 0.250419 -2.346753
  H 6.275546 0.275367 -2.330499
  H 0.537694 0.004305 1.194897
  H 0.474567 -0.772361 -0.416067
  H 1.054151 0.940783 -0.263712
  H 3.931446 0.796178 1.404151
  H 3.843243 -0.961019 1.329907
  H 1.799795 -0.922070 2.733330
  H 1.871937 0.842416 2.793949
  H 2.583365 -0.666208 -3.034176
  H 2.539410 1.087565 -2.935919
  H 5.060083 0.132982 -0.293245
  H 4.749737 0.288514 -3.320740
 22
 31.747942
  C 0.945428 -0.047330 0.208202
  C 2.403870 0.030819 0.101938
  C 3.231453 -0.046741 1.375197
  C 2.449979 -0.050349 2.679448
  H 3.148376 -0.102718 3.509971
  C 3.054540 0.111897 -1.109467
  C 2.296815 0.161817 -2.413022
  H 1.218932 0.129142 -2.280058
  C 4.497793 0.175263 -1.218900
  C 5.192897 0.259984 -2.353580
  H 6.266048 0.294493 -2.340448
  H 0.520740 -0.054600 1.193516
  H 0.433962 -0.711341 -0.466308
  H 1.223060 0.919548 -0.180398
  H 3.928491 0.794294 1.406281
  H 3.826446 -0.962100 1.335462
  H 1.790046 -0.913498 2.745468
  H 1.863297 0.860224 2.793763
  H 2.584230 -0.681273 -3.041222
  H 2.544697 1.077523 -2.949517
  H 5.059110 0.140079 -0.295071
  H 4.738007 0.296061 -3.324412
 22
 43.123074
  C 0.929441 -0.082798 0.215473
  C 2.394401 0.027709 0.098638
  C 3.219961 -0.035489 1.374101
  C 2.447452 -0.034559 2.679871
  H 3.152895 -0.071667 3.504977
  C 3.056429 0.108746 -1.120909
  C 2.297330 0.160429 -2.419419
  H 1.218703 0.144169 -2.279663
  C 4.494650 0.171642 -1.224283
  C 5.194460 0.260642 -2.355742
  H 6.271812 0.296014 -2.337661
  H 0.504397 -0.152607 1.200019
  H 0.394044 -0.644641 -0.532732
  H 1.348393 0.903678 -0.073696
  H 3.914876 0.810360 1.397922
  H 3.816971 -0.950569 1.335077
  H 1.796339 -0.906257 2.760043
  H 1.850552 0.873138 2.790158
  H 2.570060 -0.687643 -3.046672
  H 2.553922 1.069839 -2.960585
  H 5.054397 0.131807 -0.296369
  H 4.740138 0.301464 -3.333411
 22
 51.020105
  C 0.919868 -0.119264 0.225613
  C 2.386193 0.021661 0.090638
  C 3.212661 -0.024886 1.367903
  C 2.443830 -0.019231 2.685160
  H 3.155150 -0.032170 3.506808
  C 3.051005 0.104921 -1.132701
  C 2.297587 0.163137 -2.432966
  H 1.221729 0.167406 -2.296844
  C 4.487395 0.168852 -1.227558
  C 5.197548 0.260516 -2.355213
  H 6.274952 0.288006 -2.329122
  H 0.504672 -0.255656 1.204559
  H 0.356915 -0.563977 -0.575200
  H 1.446162 0.878879 0.033840
  H 3.898684 0.826265 1.380354
  H 3.818257 -0.935114 1.332676
  H 1.809799 -0.900984 2.783343
  H 1.831632 0.877971 2.787038
  H 2.557320 -0.692364 -3.059327
  H 2.570763 1.068915 -2.977855
  H 5.039353 0.122533 -0.301098
  H 4.751518 0.304891 -3.332334
 22
 56.916584
  C 0.916483 -0.152014 0.231663
  C 2.383126 0.022917 0.088852
  C 3.212287 -0.018026 1.369332
  C 2.440276 -0.009155 2.686598
  H 3.147995 -0.001955 3.508195
  C 3.051111 0.106045 -1.138860
  C 2.297000 0.167252 -2.444601
  H 1.220826 0.192032 -2.310103
  C 4.481787 0.169801 -1.228290
  C 5.197303 0.258339 -2.354896
  H 6.276845 0.285435 -2.324009
  H 0.502761 -0.329355 1.204694
  H 0.334786 -0.499133 -0.598520
  H 1.524985 0.859439 0.106920
  H 3.889842 0.832682 1.377159
  H 3.824355 -0.923689 1.339108
  H 1.822399 -0.895741 2.794160
  H 1.815084 0.876109 2.777441
  H 2.542253 -0.698153 -3.066949
  H 2.585484 1.065509 -2.997611
  H 5.032983 0.124122 -0.298884
  H 4.753657 0.300629 -3.334999
 22
 62.078851
  C 0.913613 -0.179397 0.238461
  C 2.377550 0.026417 0.096945
  C 3.209818 -0.011432 1.362148
  C 2.442255 0.001701 2.666578
  H 3.148585 0.020472 3.489437
  C 3.045364 0.108847 -1.131871
  C 2.291975 0.176124 -2.433186
  H 1.216759 0.216164 -2.297641
  C 4.477003 0.169926 -1.221087
  C 5.197225 0.256287 -2.345720
  H 6.287085 0.281876 -2.310785
  H 0.509146 -0.359081 1.190325
  H 0.323016 -0.485155 -0.607191
  H 1.580813 0.839104 0.136001
  H 3.881324 0.842075 1.364432
  H 3.838288 -0.932534 1.334043
  H 1.833090 -0.887072 2.777469
  H 1.809875 0.881715 2.747864
  H 2.523685 -0.693550 -3.053206
  H 2.589873 1.066773 -2.987950
  H 5.023090 0.123252 -0.298871
  H 4.760745 0.297952 -3.317636
 22
 65.430705
  C 0.915697 -0.222244 0.231529
  C 2.374597 0.044847 0.102551
  C 3.210745 -0.003977 1.372367
  C 2.439018 0.000230 2.684687
  H 3.148056 0.025921 3.512570
  C 3.055865 0.118446 -1.144696
  C 2.296071 0.183339 -2.442803
  H 1.223219 0.247565 -2.301303
  C 4.481890 0.176645 -1.229625
  C 5.204138 0.249739 -2.356754
  H 6.279602 0.274120 -2.320938
  H 0.486798 -0.395802 1.188192
  H 0.323446 -0.466834 -0.627947
  H 1.619593 0.854349 0.158452
  H 3.887273 0.857389 1.378323
  H 3.828642 -0.910310 1.337952
  H 1.835725 -0.897655 2.795972
  H 1.796324 0.875982 2.767325
  H 2.504728 -0.696707 -3.050006
  H 2.608408 1.058249 -3.011957
  H 5.031030 0.138266 -0.301424
  H 4.765251 0.278106 -3.336707
 22
 68.043609
  C 0.924773 -0.274486 0.225386
  C 2.372766 0.058391 0.107411
  C 3.212660 0.001008 1.378022
  C 2.437205 0.004769 2.692879
  H 3.143282 0.037996 3.521631
  C 3.060062 0.128103 -1.147681
  C 2.296241 0.196852 -2.444027
  H 1.226772 0.290189 -2.298647
  C 4.481065 0.187091 -1.231295
  C 5.204550 0.247135 -2.360393
  H 6.279540 0.261962 -2.324908
  H 0.476522 -0.416814 1.180669
  H 0.331458 -0.478769 -0.641702
  H 1.656362 0.870473 0.164681
  H 3.889966 0.860223 1.385317
  H 3.825745 -0.903026 1.341197
  H 1.838750 -0.897129 2.805977
  H 1.788907 0.876307 2.771469
  H 2.478694 -0.693026 -3.041434
  H 2.626537 1.053800 -3.023641
  H 5.031616 0.152407 -0.302606
  H 4.765403 0.259193 -3.339811
 22
 69.227795
  C 0.943214 -0.337271 0.214854
  C 2.372120 0.069106 0.114664
  C 3.213134 0.005244 1.388434
  C 2.431818 0.014317 2.701823
  H 3.131649 0.051257 3.531932
  C 3.067936 0.135288 -1.149867
  C 2.293567 0.213157 -2.438891
  H 1.222666 0.345646 -2.279721
  C 4.484595 0.190428 -1.234869
  C 5.207617 0.244486 -2.367193
  H 6.280803 0.255652 -2.333134
  H 0.468278 -0.435304 1.166694
  H 0.355980 -0.515585 -0.661834
  H 1.694180 0.899642 0.162079
  H 3.892490 0.859280 1.395898
  H 3.820575 -0.902426 1.353195
  H 1.833080 -0.885801 2.815161
  H 1.783627 0.884575 2.773120
  H 2.437905 -0.691449 -3.028007
  H 2.645907 1.050500 -3.033033
  H 5.036125 0.155597 -0.310098
  H 4.764590 0.253012 -3.349399
 22
 69.260664
  C 0.966372 -0.406392 0.205176
  C 2.369006 0.077389 0.123356
  C 3.211987 0.009519 1.397126
  C 2.427681 0.028372 2.708033
  H 3.120430 0.068589 3.535112
  C 3.074405 0.140545 -1.152497
  C 2.287112 0.232263 -2.432309
  H 1.223551 0.412222 -2.256083
  C 4.485785 0.186490 -1.237584
  C 5.209968 0.240232 -2.371809
  H 6.284019 0.250958 -2.337392
  H 0.461529 -0.452533 1.148654
  H 0.389027 -0.569767 -0.681891
  H 1.729202 0.933098 0.157214
  H 3.897890 0.860663 1.401299
  H 3.812052 -0.902845 1.364610
  H 1.825027 -0.870357 2.824693
  H 1.782100 0.900671 2.771322
  H 2.383068 -0.689306 -3.012486
  H 2.664882 1.046523 -3.044003
  H 5.038718 0.149638 -0.312893
  H 4.765456 0.262147 -3.354198
 22
 68.811694
  C 0.990947 -0.463928 0.195191
  C 2.363880 0.089240 0.125261
  C 3.211589 0.017032 1.397452
  C 2.427144 0.042772 2.707058
  H 3.119920 0.087004 3.538201
  C 3.070045 0.151647 -1.147946
  C 2.279452 0.251825 -2.424957
  H 1.225546 0.461583 -2.243315
  C 4.478624 0.186493 -1.231887
  C 5.204002 0.236866 -2.367724
  H 6.279155 0.243083 -2.333452
  H 0.466750 -0.470914 1.128758
  H 0.422050 -0.621245 -0.700647
  H 1.766404 0.964753 0.151461
  H 3.897953 0.862306 1.398856
  H 3.807185 -0.896626 1.365718
  H 1.822246 -0.856025 2.826178
  H 1.782174 0.914823 2.763455
  H 2.344055 -0.671454 -2.989840
  H 2.679675 1.054991 -3.055421
  H 5.033166 0.143602 -0.304608
  H 4.760130 0.253257 -3.346160
 22
 66.959214
  C 1.013397 -0.529148 0.193295
  C 2.355708 0.097988 0.134173
  C 3.205931 0.016643 1.404025
  C 2.421102 0.062558 2.708283
  H 3.116525 0.106289 3.545970
  C 3.077521 0.157107 -1.154650
  C 2.276035 0.272168 -2.417907
  H 1.236752 0.527202 -2.218073
  C 4.480761 0.177711 -1.238776
  C 5.208603 0.235727 -2.375339
  H 6.283369 0.251637 -2.338932
  H 0.456722 -0.481715 1.109419
  H 0.460668 -0.700487 -0.711467
  H 1.806155 1.015388 0.148925
  H 3.905348 0.852365 1.401242
  H 3.785320 -0.907058 1.375899
  H 1.807189 -0.824452 2.832101
  H 1.782917 0.946135 2.753782
  H 2.290736 -0.668300 -2.973812
  H 2.694559 1.041915 -3.061310
  H 5.035953 0.135900 -0.310919
  H 4.764579 0.285324 -3.353428
