 19
 0.000000
  H 1.363973 0.077282 0.027332
  C 2.441457 0.066544 -0.025151
  C 3.167655 0.008988 1.286392
  H 2.493554 -0.012394 2.137359
  C 3.066422 0.122664 -1.203430
  C 2.391408 0.222446 -2.546346
  C 0.867745 0.199477 -2.525170
  H 0.482643 0.276974 -3.539342
  C 4.528387 0.123449 -1.265635
  C 5.279013 0.186510 -2.361938
  H 6.355913 0.181987 -2.311944
  H 3.824015 0.877574 1.383923
  H 3.792406 -0.883888 1.332015
  H 2.745183 -0.603916 -3.169393
  H 2.721211 1.149072 -3.025078
  H 0.475256 1.033718 -1.947837
  H 0.500386 -0.728007 -2.091293
  H 5.047254 0.066474 -0.319945
  H 4.890209 0.246489 -3.364601
 19
 -0.382850
  H 1.398713 -0.028832 -0.023809
  C 2.476267 0.015762 -0.049999
  C 3.147689 0.022991 1.290227
  H 2.439367 0.305468 2.065308
  C 3.107377 0.111573 -1.222397
  C 2.396840 0.217752 -2.549674
  C 0.874797 0.180534 -2.490774
  H 0.466868 0.275693 -3.494880
  C 4.565425 0.101733 -1.293924
  C 5.305701 0.252489 -2.388432
  H 6.381130 0.210297 -2.341488
  H 3.968601 0.738304 1.296081
  H 3.543255 -0.962808 1.538390
  H 2.744369 -0.595871 -3.192876
  H 2.705833 1.157017 -3.017558
  H 0.488643 0.999969 -1.888977
  H 0.524809 -0.759991 -2.071368
  H 5.079574 -0.071040 -0.359029
  H 4.892370 0.424856 -3.366973
 19
 0.989561
  H 1.404729 -0.248766 -0.019835
  C 2.472333 -0.093028 -0.045862
  C 3.143137 0.041174 1.286407
  H 2.480037 0.563773 1.974387
  C 3.100224 0.089792 -1.211244
  C 2.396147 0.201116 -2.542652
  C 0.873559 0.197710 -2.480093
  H 0.464323 0.315930 -3.481487
  C 4.559916 0.078937 -1.294574
  C 5.294757 0.318402 -2.376744
  H 6.368103 0.232100 -2.345899
  H 4.038802 0.646142 1.163014
  H 3.391317 -0.925083 1.723780
  H 2.727146 -0.616541 -3.189548
  H 2.722771 1.136292 -3.005302
  H 0.509988 1.016514 -1.863569
  H 0.501729 -0.740320 -2.074329
  H 5.079536 -0.205433 -0.390273
  H 4.878442 0.607067 -3.326047
 19
 4.084410
  H 1.457997 -0.541300 -0.027387
  C 2.483147 -0.205917 -0.050791
  C 3.136787 0.048790 1.270151
  H 2.520495 0.762615 1.821349
  C 3.097793 0.069916 -1.203451
  C 2.395970 0.188815 -2.536477
  C 0.874404 0.238576 -2.459429
  H 0.457603 0.374295 -3.455556
  C 4.557800 0.067221 -1.298391
  C 5.287018 0.368532 -2.365918
  H 6.357429 0.248829 -2.353556
  H 4.081010 0.554651 1.071568
  H 3.250870 -0.840104 1.886266
  H 2.694846 -0.641148 -3.183615
  H 2.750128 1.111460 -3.001971
  H 0.549389 1.066776 -1.833781
  H 0.471800 -0.685056 -2.050696
  H 5.082870 -0.292164 -0.423780
  H 4.870856 0.733057 -3.288611
 19
 12.905504
  H 1.585407 -0.910633 -0.057000
  C 2.491748 -0.328551 -0.065674
  C 3.102296 0.077471 1.234349
  H 2.478382 0.874622 1.654521
  C 3.102296 0.054044 -1.197247
  C 2.391442 0.196109 -2.527790
  C 0.873977 0.299849 -2.415111
  H 0.437934 0.480024 -3.395450
  C 4.565110 0.031910 -1.297137
  C 5.299999 0.365410 -2.355505
  H 6.368075 0.216994 -2.352026
  H 4.020265 0.614214 0.956677
  H 3.199977 -0.705301 1.979173
  H 2.644209 -0.639882 -3.184912
  H 2.771609 1.107920 -2.996594
  H 0.596282 1.119686 -1.756700
  H 0.446021 -0.617578 -2.019999
  H 5.086746 -0.370286 -0.432668
  H 4.891142 0.781757 -3.256913
 19
 31.707939
  H 1.743131 -1.236464 -0.093111
  C 2.513035 -0.484288 -0.077106
  C 3.061149 0.099401 1.184646
  H 2.413915 0.898785 1.574826
  C 3.094350 0.060337 -1.166497
  C 2.408606 0.262127 -2.496302
  C 0.895649 0.361988 -2.378282
  H 0.457821 0.579731 -3.346301
  C 4.547163 0.013083 -1.262110
  C 5.281400 0.272833 -2.340287
  H 6.342746 0.105349 -2.329013
  H 3.776894 0.813252 0.698147
  H 3.314676 -0.592371 1.972291
  H 2.662470 -0.546346 -3.188602
  H 2.794949 1.187489 -2.920166
  H 0.619557 1.157657 -1.688441
  H 0.468494 -0.573848 -2.013471
  H 5.059683 -0.351066 -0.376856
  H 4.878056 0.639834 -3.260095
 19
 61.714041
  H 1.882811 -1.447842 -0.125005
  C 2.527880 -0.585420 -0.079026
  C 2.961775 0.121237 1.132355
  H 2.421869 1.033321 1.402583
  C 3.129735 0.063054 -1.140022
  C 2.414814 0.310246 -2.458712
  C 0.899079 0.383180 -2.306639
  H 0.434317 0.604329 -3.265226
  C 4.580331 -0.060507 -1.255578
  C 5.322160 0.247414 -2.324603
  H 6.383119 0.065409 -2.323557
  H 3.600022 0.854817 0.398085
  H 3.194843 -0.466554 2.011441
  H 2.669945 -0.474476 -3.179871
  H 2.779108 1.256197 -2.864852
  H 0.623222 1.165475 -1.602311
  H 0.498106 -0.559490 -1.945008
  H 5.075012 -0.486302 -0.391144
  H 4.917627 0.664484 -3.229114
 19
 79.961290
  H 1.951942 -1.522748 -0.133247
  C 2.551212 -0.628808 -0.053166
  C 2.859022 0.075796 1.120105
  H 2.393689 1.032021 1.316497
  C 3.159870 0.087817 -1.123188
  C 2.422788 0.325293 -2.429813
  C 0.910821 0.403317 -2.249011
  H 0.428833 0.625162 -3.198880
  C 4.626596 -0.038803 -1.252088
  C 5.346875 0.225576 -2.335539
  H 6.409580 0.051840 -2.342396
  H 3.525190 0.912364 0.068877
  H 3.041631 -0.463564 2.051422
  H 2.667994 -0.472459 -3.137569
  H 2.776819 1.264735 -2.861025
  H 0.651201 1.187464 -1.540330
  H 0.512905 -0.537506 -1.878316
  H 5.128726 -0.428915 -0.375065
  H 4.927686 0.617893 -3.245128
 19
 63.545796
  H 2.049309 -1.589410 -0.147694
  C 2.581067 -0.660155 -0.023128
  C 2.742433 0.020784 1.138782
  H 2.324418 1.003661 1.271217
  C 3.199960 0.131391 -1.120555
  C 2.427995 0.364934 -2.405993
  C 0.918924 0.426603 -2.183734
  H 0.409505 0.651771 -3.118341
  C 4.692862 0.005081 -1.263369
  C 5.392800 0.193956 -2.370543
  H 6.458588 0.040142 -2.381194
  H 3.431241 0.936993 -0.247044
  H 2.851269 -0.483567 2.101029
  H 2.666623 -0.432518 -3.113461
  H 2.757011 1.311173 -2.850177
  H 0.671069 1.203230 -1.461726
  H 0.539401 -0.520094 -1.809900
  H 5.203184 -0.318836 -0.364350
  H 4.947889 0.471324 -3.310017
 19
 39.147654
  H 2.160893 -1.575004 -0.210552
  C 2.642683 -0.629614 -0.014096
  C 2.690577 -0.025222 1.187047
  H 2.385660 1.000271 1.326131
  C 3.205449 0.242157 -1.106819
  C 2.425588 0.385086 -2.398674
  C 0.918647 0.419811 -2.173034
  H 0.399409 0.566718 -3.117967
  C 4.689018 -0.006264 -1.282662
  C 5.389506 0.174117 -2.390282
  H 6.446394 -0.031030 -2.416806
  H 3.383953 1.091470 -0.378957
  H 2.715474 -0.550951 2.138553
  H 2.684453 -0.446394 -3.057822
  H 2.726712 1.309038 -2.898799
  H 0.652641 1.235970 -1.505268
  H 0.567142 -0.508907 -1.733656
  H 5.180874 -0.393137 -0.397956
  H 4.962882 0.564385 -3.297389
 19
 19.202146
  H 2.412279 -1.610250 -0.279027
  C 2.714052 -0.605427 -0.022017
  C 2.577815 -0.096859 1.194366
  H 2.343298 0.943824 1.353531
  C 3.237527 0.306357 -1.099593
  C 2.431240 0.401824 -2.385651
  C 0.930599 0.456858 -2.123505
  H 0.386966 0.553181 -3.060912
  C 4.716914 0.059605 -1.286934
  C 5.387059 0.117819 -2.421491
  H 6.451297 -0.045794 -2.449339
  H 3.295514 1.250006 -0.517301
  H 2.457630 -0.689654 2.091671
  H 2.664472 -0.457877 -3.018446
  H 2.728227 1.304218 -2.923986
  H 0.685195 1.309872 -1.494319
  H 0.588353 -0.444937 -1.622147
  H 5.237289 -0.177602 -0.368098
  H 4.920910 0.337989 -3.365856
 19
 8.431241
  H 2.509903 -1.536623 -0.368728
  C 2.732350 -0.531206 -0.038833
  C 2.537767 -0.163760 1.213791
  H 2.554335 0.867948 1.524578
  C 3.244647 0.422401 -1.082321
  C 2.434882 0.410934 -2.378547
  C 0.932840 0.453451 -2.118560
  H 0.387732 0.488991 -3.059436
  C 4.715089 0.139342 -1.270983
  C 5.367952 0.063529 -2.415060
  H 6.426871 -0.132689 -2.441512
  H 3.206833 1.411539 -0.605936
  H 2.300191 -0.880697 1.983576
  H 2.683491 -0.485502 -2.950268
  H 2.712418 1.281622 -2.976257
  H 0.672369 1.336034 -1.537838
  H 0.606628 -0.424242 -1.566592
  H 5.247120 -0.013708 -0.339790
  H 4.893221 0.205788 -3.370335
 19
 5.858484
  H 2.814005 -1.588353 -0.407094
  C 2.806017 -0.562897 -0.059664
  C 2.450536 -0.273169 1.177301
  H 2.437987 0.742174 1.539361
  C 3.259353 0.456166 -1.069760
  C 2.430716 0.359102 -2.353520
  C 0.945312 0.556062 -2.080251
  H 0.382075 0.535219 -3.010249
  C 4.737646 0.259930 -1.280214
  C 5.357573 0.034111 -2.423073
  H 6.426740 -0.095729 -2.462328
  H 3.119126 1.451022 -0.630188
  H 2.147589 -1.032232 1.879683
  H 2.590181 -0.618437 -2.812754
  H 2.769953 1.124186 -3.053255
  H 0.770910 1.513760 -1.595487
  H 0.566695 -0.227811 -1.428950
  H 5.311175 0.307008 -0.361839
  H 4.843049 -0.026960 -3.366769
