 20
 0.000000
  C 1.006503 -0.071624 0.047449
  C 2.502774 -0.082851 0.025410
  C 3.217846 -0.595850 -0.981695
  C 4.656166 -0.605965 -1.001548
  C 5.379725 -1.120253 -2.011178
  C 6.818896 -1.129324 -2.028984
  C 7.534865 -1.641792 -3.035053
  C 9.024782 -1.662517 -3.075732
  H 0.644748 0.394676 0.962868
  H 0.610771 -1.086356 0.008910
  H 0.610773 0.493823 -0.796016
  H 3.003588 0.352468 0.880018
  H 2.703893 -1.028971 -1.831971
  H 5.158732 -0.170617 -0.146892
  H 4.877617 -1.555667 -2.865973
  H 7.327080 -0.695277 -1.176877
  H 7.034173 -2.077587 -3.890575
  H 9.460668 -1.209764 -2.186908
  H 9.382902 -1.116928 -3.950152
  H 9.382901 -2.690603 -3.148550
 20
 0.595096
  C 1.004062 -0.068448 0.052111
  C 2.496077 -0.026395 -0.002262
  C 3.226373 -0.633284 -0.940442
  C 4.665408 -0.618939 -0.976192
  C 5.390506 -0.972809 -2.050240
  C 6.824904 -1.064579 -2.050901
  C 7.540216 -1.520159 -3.081621
  C 9.020151 -1.690184 -3.075309
  H 0.615084 0.698180 0.717419
  H 0.664918 -1.037922 0.421972
  H 0.572298 0.077147 -0.939607
  H 2.997135 0.532888 0.778557
  H 2.734224 -1.199066 -1.723346
  H 5.171586 -0.314924 -0.067617
  H 4.885138 -1.253787 -2.968206
  H 7.327307 -0.793666 -1.128039
  H 7.041760 -1.779641 -4.007254
  H 9.440803 -1.428367 -2.107368
  H 9.478042 -1.060019 -3.840200
  H 9.281342 -2.725237 -3.304733
 20
 2.337814
  C 0.997178 -0.104248 0.025494
  C 2.486574 -0.028159 -0.029157
  C 3.243608 -0.724358 -0.874280
  C 4.689685 -0.691187 -0.905649
  C 5.409823 -0.883296 -2.021075
  C 6.838608 -1.042761 -2.032435
  C 7.526788 -1.463352 -3.095999
  C 8.990181 -1.741379 -3.102123
  H 0.569592 0.856246 0.305111
  H 0.688015 -0.836186 0.774036
  H 0.585994 -0.410859 -0.933927
  H 2.957502 0.638453 0.681895
  H 2.786042 -1.398278 -1.589048
  H 5.197833 -0.538535 0.038780
  H 4.901882 -1.003931 -2.969946
  H 7.348241 -0.902549 -1.086922
  H 7.022823 -1.585038 -4.046660
  H 9.411025 -1.647376 -2.103910
  H 9.505677 -1.046404 -3.766557
  H 9.181216 -2.748589 -3.472662
 20
 7.173279
  C 1.003516 -0.180998 -0.010715
  C 2.480199 0.029263 -0.087848
  C 3.312530 -0.740384 -0.777175
  C 4.765509 -0.612257 -0.818971
  C 5.468607 -0.614609 -1.956263
  C 6.885382 -0.882226 -2.011137
  C 7.491862 -1.376582 -3.090998
  C 8.912329 -1.821194 -3.132080
  H 0.479091 0.771384 0.044853
  H 0.755483 -0.749735 0.887276
  H 0.642553 -0.736525 -0.873210
  H 2.872214 0.863784 0.479431
  H 2.948300 -1.580497 -1.352980
  H 5.287320 -0.646768 0.130234
  H 4.948886 -0.558028 -2.905730
  H 7.425208 -0.840296 -1.071215
  H 6.972451 -1.387538 -4.039916
  H 9.348656 -1.828764 -2.137615
  H 9.499507 -1.155963 -3.766063
  H 8.982174 -2.822322 -3.556091
 20
 14.437420
  C 1.042455 -0.430270 -0.079483
  C 2.470412 0.003307 -0.137218
  C 3.429800 -0.665639 -0.757097
  C 4.867337 -0.382489 -0.771581
  C 5.574495 -0.241227 -1.897714
  C 6.942184 -0.687203 -2.005975
  C 7.396165 -1.330096 -3.081064
  C 8.701084 -2.046803 -3.140869
  H 0.373771 0.432135 -0.106365
  H 0.855096 -0.969831 0.851060
  H 0.802426 -1.091488 -0.908119
  H 2.703998 0.943743 0.349279
  H 3.242179 -1.599822 -1.273833
  H 5.393404 -0.514226 0.169008
  H 5.049783 -0.064191 -2.831552
  H 7.512286 -0.736498 -1.084333
  H 6.875708 -1.237052 -4.022873
  H 9.125825 -2.171107 -2.146311
  H 9.412745 -1.492241 -3.757166
  H 8.569297 -3.032038 -3.594906
 20
 26.348348
  C 1.194950 -0.723107 -0.169050
  C 2.514797 -0.003839 -0.205933
  C 3.614026 -0.497909 -0.741942
  C 4.992544 0.004828 -0.717463
  C 5.687852 0.144745 -1.847608
  C 6.969647 -0.487046 -2.009589
  C 7.199128 -1.339498 -3.025441
  C 8.387203 -2.231669 -3.096254
  H 0.370238 -0.015418 -0.247581
  H 1.089096 -1.259385 0.768307
  H 1.120478 -1.445167 -0.984121
  H 2.543626 0.969438 0.259204
  H 3.660604 -1.464969 -1.258389
  H 5.544328 -0.154085 0.212276
  H 5.130827 0.321672 -2.770347
  H 7.584498 -0.559675 -1.111267
  H 6.666606 -1.221869 -3.956397
  H 8.871109 -2.312379 -2.131603
  H 9.122223 -1.844630 -3.818033
  H 8.086962 -3.220010 -3.425783
 20
 41.275275
  C 1.457252 -1.021106 -0.298714
  C 2.616970 -0.081248 -0.277467
  C 3.822015 -0.377749 -0.730042
  C 5.109688 0.313110 -0.665255
  C 5.809386 0.492987 -1.811951
  C 6.987348 -0.313179 -2.016370
  C 6.951940 -1.273523 -2.947203
  C 7.968668 -2.369277 -3.012054
  H 0.528546 -0.487466 -0.497345
  H 1.362302 -1.506750 0.671558
  H 1.593858 -1.793589 -1.054168
  H 2.431597 0.895067 0.153990
  H 4.064021 -1.315396 -1.252189
  H 5.659922 0.200257 0.264495
  H 5.237429 0.712266 -2.710649
  H 7.641117 -0.451108 -1.157062
  H 6.443285 -1.083596 -3.883104
  H 8.468936 -2.497842 -2.055442
  H 8.723081 -2.147087 -3.772244
  H 7.491707 -3.309500 -3.282205
 20
 54.122710
  C 1.742512 -1.274770 -0.393729
  C 2.746840 -0.173418 -0.338345
  C 4.005264 -0.299303 -0.719321
  C 5.187385 0.562831 -0.674608
  C 5.830273 0.708341 -1.873136
  C 6.943660 -0.182626 -2.064653
  C 6.728728 -1.239992 -2.862571
  C 7.632878 -2.435743 -2.869055
  H 0.758932 -0.884407 -0.635780
  H 1.677641 -1.768982 0.577978
  H 2.021950 -2.023068 -1.135101
  H 2.385251 0.779307 0.019711
  H 4.381374 -1.195580 -1.260474
  H 5.761480 0.561941 0.243151
  H 5.177853 0.792036 -2.741282
  H 7.647115 -0.285402 -1.242191
  H 6.139937 -1.115489 -3.763461
  H 8.235502 -2.478337 -1.967724
  H 8.304100 -2.408978 -3.731432
  H 7.039866 -3.347763 -2.933334
 20
 69.199633
  C 1.996205 -1.487815 -0.422380
  C 2.820209 -0.241259 -0.452942
  C 4.084432 -0.200985 -0.822565
  C 5.181167 0.740445 -0.749441
  C 5.846807 0.852181 -1.955438
  C 6.882549 -0.139777 -2.080068
  C 6.495162 -1.261172 -2.736960
  C 7.369797 -2.484245 -2.727774
  H 0.949298 -1.266323 -0.644777
  H 2.041494 -1.930631 0.573603
  H 2.367209 -2.221741 -1.139564
  H 2.348949 0.640234 -0.049072
  H 4.569679 -1.087796 -1.353026
  H 5.771331 0.695877 0.151398
  H 5.235999 1.018021 -2.835507
  H 7.580603 -0.244421 -1.256775
  H 5.978761 -1.131932 -3.680791
  H 7.891242 -2.582994 -1.779353
  H 8.110367 -2.430468 -3.523256
  H 6.773575 -3.376498 -2.892420
 20
 87.698773
  C 2.409852 -1.703745 -0.636505
  C 3.013907 -0.340087 -0.523028
  C 4.271185 -0.060141 -0.785072
  C 5.261323 0.899654 -0.702293
  C 5.858366 0.980504 -1.985747
  C 6.811932 -0.034779 -2.100668
  C 6.176972 -1.202296 -2.589032
  C 6.883009 -2.529901 -2.483546
  H 1.363520 -1.637471 -0.926156
  H 2.459076 -2.213764 0.326793
  H 2.947381 -2.306222 -1.365400
  H 2.341085 0.444951 -0.190701
  H 5.044792 -1.119928 -1.589382
  H 5.879610 0.940480 0.186496
  H 5.150659 1.049829 -2.810746
  H 7.555775 -0.145927 -1.321112
  H 5.583951 -1.096438 -3.493005
  H 7.542787 -2.549149 -1.619264
  H 7.479418 -2.718305 -3.377001
  H 6.161272 -3.338569 -2.384333
 20
 74.996560
  C 2.451405 -1.662375 -0.603120
  C 2.963177 -0.296749 -0.416961
  C 4.174943 0.059456 -0.656284
  C 5.209501 0.896565 -0.666411
  C 5.774349 0.901660 -1.994012
  C 6.712506 -0.063644 -2.110137
  C 6.132981 -1.309902 -2.633912
  C 6.928735 -2.580924 -2.480347
  H 1.384355 -1.637554 -0.924749
  H 2.510011 -2.212352 0.345180
  H 3.062256 -2.224418 -1.374853
  H 2.220749 0.446611 -0.103923
  H 5.206465 -1.368971 -1.888167
  H 5.882758 0.904749 0.173532
  H 5.019692 0.952083 -2.819616
  H 7.404362 -0.162974 -1.325456
  H 5.648089 -1.225263 -3.586346
  H 7.501834 -2.575202 -1.518722
  H 7.618465 -2.688859 -3.283547
  H 6.267369 -3.441364 -2.480911
 20
 62.032573
  C 2.306377 -1.632368 -0.421001
  C 2.765924 -0.209383 -0.530664
  C 4.013266 0.148614 -0.608552
  C 5.111741 0.876631 -0.596486
  C 5.793824 0.796876 -1.894162
  C 6.686983 -0.217902 -1.998820
  C 6.194659 -1.447425 -2.675147
  C 7.128507 -2.641638 -2.690635
  H 1.308162 -1.748156 -0.842223
  H 2.260356 -1.928617 0.632735
  H 2.990698 -2.302621 -0.927847
  H 1.987467 0.540890 -0.435992
  H 5.358271 -1.668433 -1.953523
  H 5.684897 1.022577 0.307225
  H 5.108578 0.901828 -2.740010
  H 7.407745 -0.354010 -1.205926
  H 5.739002 -1.263444 -3.650841
  H 7.741695 -2.660455 -1.796074
  H 7.786526 -2.600574 -3.556975
  H 6.559458 -3.563715 -2.734694
 20
 50.269973
  C 2.223680 -1.580825 -0.308515
  C 2.674945 -0.157061 -0.406932
  C 3.914236 0.217529 -0.541013
  C 5.042242 0.875438 -0.628687
  C 5.672309 0.624010 -1.925164
  C 6.604027 -0.346985 -1.973375
  C 6.266809 -1.568417 -2.762245
  C 7.303751 -2.676826 -2.748778
  H 1.240934 -1.704965 -0.762706
  H 2.146048 -1.877481 0.738632
  H 2.930998 -2.244514 -0.800144
  H 1.886846 0.593747 -0.313557
  H 5.346290 -1.856690 -2.201531
  H 5.672915 1.008690 0.237286
  H 5.032859 0.755773 -2.793676
  H 7.211515 -0.502951 -1.088349
  H 5.929833 -1.341463 -3.780658
  H 7.693526 -2.823261 -1.741780
  H 8.134727 -2.429737 -3.405746
  H 6.869683 -3.613807 -3.087039
 20
 40.592329
  C 2.035046 -1.485071 -0.229106
  C 2.544794 -0.084771 -0.406076
  C 3.800491 0.229168 -0.517819
  C 4.993919 0.748328 -0.614480
  C 5.624585 0.462950 -1.905557
  C 6.571291 -0.483128 -1.971504
  C 6.377175 -1.683129 -2.840598
  C 7.492124 -2.714516 -2.759448
  H 1.088629 -1.611790 -0.750044
  H 1.869118 -1.696406 0.828610
  H 2.751413 -2.208174 -0.615752
  H 1.789198 0.695298 -0.409398
  H 5.463086 -2.095236 -2.370388
  H 5.609160 0.955013 0.249568
  H 4.965201 0.568329 -2.764372
  H 7.230436 -0.620127 -1.120161
  H 6.156709 -1.423848 -3.877238
  H 7.836492 -2.821334 -1.733096
  H 8.338444 -2.419642 -3.374585
  H 7.138804 -3.684396 -3.104118
 20
 34.247921
  C 1.976948 -1.488607 -0.116740
  C 2.479756 -0.092382 -0.348885
  C 3.733916 0.214864 -0.490475
  C 4.941153 0.678291 -0.614876
  C 5.600217 0.297418 -1.869606
  C 6.502722 -0.676967 -1.867267
  C 6.484852 -1.719806 -2.934762
  C 7.649940 -2.696756 -2.934494
  H 1.013021 -1.628050 -0.595932
  H 1.849335 -1.660859 0.957226
  H 2.671725 -2.228653 -0.501465
  H 1.721392 0.663602 -0.494585
  H 5.561922 -2.247887 -2.621536
  H 5.556719 0.904781 0.242063
  H 5.016879 0.457601 -2.772169
  H 7.069401 -0.918093 -0.979295
  H 6.266588 -1.328432 -3.931982
  H 8.024707 -2.833744 -1.921708
  H 8.472606 -2.334709 -3.552908
  H 7.335261 -3.662605 -3.322554
