 20
 0.000000
  C 1.007360 0.117123 0.342017
  C 2.481445 0.116459 0.342073
  C 3.207688 0.595205 1.532744
  H 2.530534 0.911234 2.318023
  C 3.134652 -0.340815 -0.794885
  C 4.519573 -0.400989 -0.945989
  C 5.191721 -0.854674 -2.078636
  C 4.549728 -1.349446 -3.312369
  H 3.472401 -1.335123 -3.276213
  O 6.500306 -0.871811 -2.123996
  H 0.594089 0.491678 1.272704
  H 0.629544 -0.891175 0.166902
  H 0.630437 0.723927 -0.482486
  H 3.857305 1.431430 1.272474
  H 3.857016 -0.188512 1.924145
  H 2.507900 -0.668575 -1.610335
  H 5.123742 -0.066448 -0.113210
  H 4.898674 -2.362861 -3.509149
  H 4.898447 -0.752498 -4.154794
  H 6.943604 -0.548291 -1.317694
 20
 4.922411
  C 1.005399 0.110839 0.324795
  C 2.470745 0.130117 0.375860
  C 3.166715 0.611725 1.575635
  H 2.469004 0.921709 2.346571
  C 3.168873 -0.309714 -0.718118
  C 4.533172 -0.394892 -0.931292
  C 5.170694 -0.860309 -2.093085
  C 4.506609 -1.353763 -3.321475
  H 3.421846 -1.336438 -3.276221
  O 6.492348 -0.888649 -2.168084
  H 0.556938 0.479327 1.241003
  H 0.648651 -0.903002 0.132115
  H 0.650131 0.710387 -0.515827
  H 3.815649 1.453571 1.327938
  H 3.814926 -0.168108 1.979186
  H 2.754103 -0.673541 -1.623884
  H 5.199444 -0.073175 -0.130211
  H 4.845538 -2.371184 -3.520755
  H 4.844404 -0.756229 -4.169083
  H 6.961699 -0.567467 -1.370723
 20
 15.137572
  C 1.002001 0.104048 0.304783
  C 2.468750 0.140476 0.400255
  C 3.130362 0.628348 1.620793
  H 2.411769 0.930879 2.376385
  C 3.213232 -0.291762 -0.676524
  C 4.563905 -0.392752 -0.928599
  C 5.156723 -0.863402 -2.102268
  C 4.468721 -1.355291 -3.320968
  H 3.381317 -1.337659 -3.271733
  O 6.459248 -0.903240 -2.207642
  H 0.521074 0.465876 1.207360
  H 0.664891 -0.911260 0.098558
  H 0.666749 0.697528 -0.545191
  H 3.778169 1.473376 1.388555
  H 3.777478 -0.144342 2.035390
  H 2.976559 -0.672269 -1.625621
  H 5.277653 -0.088352 -0.170067
  H 4.802694 -2.374621 -3.522062
  H 4.799579 -0.758815 -4.172743
  H 6.948561 -0.584213 -1.420893
 20
 28.757459
  C 0.991436 0.097870 0.293435
  C 2.462175 0.145654 0.412492
  C 3.109323 0.640365 1.647871
  H 2.382155 0.938583 2.395329
  C 3.225115 -0.278677 -0.645704
  C 4.572190 -0.391935 -0.930043
  C 5.147019 -0.867750 -2.112760
  C 4.445063 -1.355209 -3.324122
  H 3.363050 -1.332806 -3.268815
  O 6.448037 -0.917285 -2.234059
  H 0.493476 0.456520 1.189761
  H 0.664046 -0.924303 0.080519
  H 0.663762 0.690871 -0.565822
  H 3.757880 1.489755 1.421423
  H 3.759608 -0.129658 2.069125
  H 3.141066 -0.668551 -1.616312
  H 5.331766 -0.090398 -0.182514
  H 4.772573 -2.377223 -3.527863
  H 4.772659 -0.759326 -4.179078
  H 6.947452 -0.604894 -1.456178
 20
 43.957197
  C 0.976887 0.096103 0.289282
  C 2.452065 0.147168 0.416115
  C 3.097143 0.643886 1.656670
  H 2.368450 0.941688 2.403634
  C 3.217827 -0.271406 -0.628051
  C 4.577379 -0.393453 -0.934652
  C 5.145804 -0.870213 -2.118673
  C 4.433436 -1.353612 -3.320051
  H 3.357319 -1.326520 -3.254250
  O 6.448427 -0.923860 -2.249231
  H 0.472953 0.454568 1.185805
  H 0.651992 -0.930433 0.073615
  H 0.651111 0.690294 -0.574822
  H 3.747888 1.495079 1.429767
  H 3.750008 -0.127458 2.078817
  H 3.267462 -0.660913 -1.597823
  H 5.364899 -0.101056 -0.210360
  H 4.753755 -2.374822 -3.525711
  H 4.754370 -0.759800 -4.175901
  H 6.950652 -0.614899 -1.479910
 20
 57.006122
  C 0.970097 0.103931 0.309448
  C 2.438971 0.152544 0.428710
  C 3.082238 0.647646 1.667785
  H 2.354382 0.944237 2.414526
  C 3.202084 -0.269902 -0.627149
  C 4.572590 -0.397436 -0.952099
  C 5.151420 -0.873878 -2.128960
  C 4.439444 -1.365300 -3.348504
  H 3.355277 -1.337709 -3.285653
  O 6.455056 -0.923966 -2.245248
  H 0.472306 0.460111 1.202505
  H 0.647054 -0.911555 0.095810
  H 0.645301 0.692222 -0.544686
  H 3.727738 1.492564 1.443141
  H 3.730811 -0.117573 2.085804
  H 3.358944 -0.662894 -1.605201
  H 5.360555 -0.099485 -0.219880
  H 4.761312 -2.387522 -3.553162
  H 4.764155 -0.773037 -4.205350
  H 6.948457 -0.613869 -1.469943
 20
 68.791652
  C 0.954053 0.125399 0.326847
  C 2.426807 0.147775 0.421015
  C 3.093622 0.622155 1.651360
  H 2.374703 0.928326 2.417225
  C 3.162235 -0.281155 -0.651725
  C 4.544038 -0.392392 -0.972976
  C 5.151128 -0.872700 -2.139908
  C 4.459447 -1.381113 -3.350447
  H 3.381470 -1.364670 -3.289330
  O 6.453926 -0.904637 -2.241704
  H 0.471689 0.487741 1.239139
  H 0.613487 -0.879091 0.111941
  H 0.625603 0.719704 -0.515595
  H 3.747321 1.455638 1.420990
  H 3.734949 -0.153553 2.054689
  H 3.411400 -0.663940 -1.602756
  H 5.324054 -0.075232 -0.232718
  H 4.790280 -2.385901 -3.541173
  H 4.776098 -0.802625 -4.199304
  H 6.946913 -0.571713 -1.445077
 20
 77.209213
  C 0.940390 0.189238 0.332212
  C 2.415847 0.139012 0.414766
  C 3.103425 0.541497 1.667091
  H 2.390643 0.854610 2.439098
  C 3.123169 -0.284808 -0.661696
  C 4.521988 -0.335595 -1.015569
  C 5.157660 -0.842146 -2.147222
  C 4.487234 -1.437954 -3.336944
  H 3.388671 -1.460977 -3.271912
  O 6.468138 -0.832618 -2.243449
  H 0.487173 0.542547 1.262220
  H 0.561951 -0.806724 0.094272
  H 0.616055 0.825859 -0.490593
  H 3.787925 1.366756 1.443715
  H 3.720143 -0.269060 2.065163
  H 3.445154 -0.667224 -1.613475
  H 5.266671 0.041197 -0.286460
  H 4.865316 -2.450309 -3.475655
  H 4.781569 -0.885567 -4.228354
  H 6.934208 -0.470214 -1.475113
 20
 80.793606
  C 0.924398 0.275327 0.333794
  C 2.408688 0.130048 0.410801
  C 3.101969 0.431610 1.702530
  H 2.396769 0.745126 2.461218
  C 3.102425 -0.281107 -0.646645
  C 4.507098 -0.278864 -1.086660
  C 5.170346 -0.818940 -2.173752
  C 4.525025 -1.528151 -3.312826
  H 3.444948 -1.606764 -3.223655
  O 6.481397 -0.735983 -2.291642
  H 0.507078 0.613922 1.278923
  H 0.485117 -0.687983 0.072224
  H 0.635335 0.975770 -0.450424
  H 3.822874 1.227252 1.526148
  H 3.653313 -0.427036 2.075678
  H 3.457395 -0.666168 -1.621715
  H 5.201291 0.202885 -0.372362
  H 4.958182 -2.526081 -3.390785
  H 4.770934 -1.017867 -4.245486
  H 6.936370 -0.294398 -1.552161
 20
 84.823712
  C 0.920620 0.317517 0.343443
  C 2.400578 0.132521 0.414998
  C 3.097288 0.371797 1.728800
  H 2.384841 0.675711 2.496774
  C 3.087089 -0.263159 -0.639019
  C 4.493516 -0.245310 -1.139824
  C 5.178598 -0.810001 -2.193795
  C 4.555448 -1.588449 -3.303449
  H 3.485953 -1.695070 -3.204938
  O 6.487808 -0.687776 -2.315844
  H 0.522141 0.638654 1.295245
  H 0.448155 -0.621944 0.064170
  H 0.659872 1.051719 -0.412596
  H 3.841969 1.164604 1.594074
  H 3.621151 -0.527515 2.069592
  H 3.467212 -0.638852 -1.629105
  H 5.142444 0.293667 -0.434361
  H 5.014577 -2.577322 -3.342818
  H 4.782469 -1.107053 -4.255476
  H 6.927760 -0.204869 -1.593569
 20
 87.506299
  C 0.918425 0.358842 0.353187
  C 2.402017 0.129284 0.421812
  C 3.094001 0.299141 1.744019
  H 2.390015 0.585320 2.511458
  C 3.081433 -0.246594 -0.636417
  C 4.483868 -0.207649 -1.180697
  C 5.187061 -0.800485 -2.207565
  C 4.581488 -1.646174 -3.274139
  H 3.504813 -1.784460 -3.156203
  O 6.491867 -0.636560 -2.344666
  H 0.520413 0.665966 1.330810
  H 0.415088 -0.558233 0.041552
  H 0.682513 1.131965 -0.385780
  H 3.847803 1.067252 1.651519
  H 3.585665 -0.615360 2.044175
  H 3.484235 -0.599445 -1.633170
  H 5.104487 0.387371 -0.493271
  H 5.072288 -2.621293 -3.273922
  H 4.785251 -1.201386 -4.248938
  H 6.918567 -0.106270 -1.649604
 20
 89.712784
  C 0.916488 0.391480 0.368450
  C 2.394496 0.141879 0.424143
  C 3.087295 0.229630 1.760445
  H 2.377770 0.487451 2.546107
  C 3.067246 -0.204708 -0.644991
  C 4.474990 -0.160088 -1.224135
  C 5.192139 -0.789257 -2.221253
  C 4.602952 -1.704477 -3.236868
  H 3.541308 -1.859691 -3.103102
  O 6.491848 -0.603583 -2.367811
  H 0.528941 0.658215 1.345741
  H 0.401780 -0.497760 0.021543
  H 0.691004 1.193895 -0.331353
  H 3.860091 0.994487 1.712946
  H 3.566888 -0.717835 2.013394
  H 3.493404 -0.532625 -1.668285
  H 5.073955 0.475982 -0.561212
  H 5.118419 -2.669129 -3.189006
  H 4.790883 -1.306859 -4.236314
  H 6.908310 -0.032330 -1.698776
 20
 91.000489
  C 0.927620 0.413628 0.373937
  C 2.396427 0.147062 0.426051
  C 3.081731 0.156173 1.775775
  H 2.372105 0.377361 2.564790
  C 3.071799 -0.158675 -0.652530
  C 4.467016 -0.111801 -1.256814
  C 5.193889 -0.779547 -2.226773
  C 4.616134 -1.757583 -3.185443
  H 3.556965 -1.928724 -3.029326
  O 6.487854 -0.571002 -2.394156
  H 0.535108 0.640991 1.367469
  H 0.404542 -0.454846 -0.017165
  H 0.715535 1.251491 -0.289430
  H 3.856326 0.908556 1.778044
  H 3.549221 -0.806375 1.980703
  H 3.505862 -0.475081 -1.693612
  H 5.049698 0.562272 -0.626121
  H 5.155236 -2.711271 -3.093483
  H 4.783538 -1.409898 -4.203915
  H 6.894675 0.042627 -1.760523
 20
 90.822543
  C 0.926135 0.418260 0.388979
  C 2.403640 0.155111 0.428364
  C 3.079658 0.074554 1.777383
  H 2.364677 0.245577 2.573051
  C 3.081535 -0.095886 -0.659182
  C 4.468828 -0.052566 -1.291044
  C 5.199327 -0.775119 -2.223630
  C 4.623279 -1.816332 -3.115668
  H 3.566855 -1.989048 -2.938331
  O 6.488620 -0.561939 -2.411887
  H 0.534077 0.590898 1.389106
  H 0.404225 -0.428405 -0.050199
  H 0.713889 1.291504 -0.224505
  H 3.856471 0.832274 1.833731
  H 3.547363 -0.895994 1.922293
  H 3.523582 -0.362873 -1.750944
  H 5.043970 0.655939 -0.692166
  H 5.171437 -2.751902 -2.976281
  H 4.774918 -1.528373 -4.155081
  H 6.892226 0.094629 -1.818855
