 26
 0.000000
  C 1.001620 0.121510 0.352995
  C 2.476290 0.130745 0.376915
  C 3.240474 0.603964 1.554752
  C 2.446088 1.090249 2.763907
  C 3.389881 1.536898 3.876645
  C 3.125498 -0.326797 -0.761680
  C 4.503553 -0.396731 -0.937457
  C 5.160581 -0.852991 -2.075772
  C 4.518316 -1.347984 -3.309729
  H 3.437352 -1.340972 -3.292254
  O 6.472697 -0.869919 -2.119313
  H 0.555561 0.489582 1.268191
  H 0.641126 -0.891276 0.166082
  H 0.641548 0.723331 -0.482926
  H 3.901166 1.416403 1.231765
  H 3.900622 -0.206377 1.883999
  H 1.809513 0.290304 3.145712
  H 1.810363 1.932538 2.485783
  H 4.025082 0.715904 4.201788
  H 2.823252 1.883093 4.737461
  H 4.025980 2.353950 3.543514
  H 2.494902 -0.653740 -1.575263
  H 5.137764 -0.069872 -0.123895
  H 4.877397 -2.360020 -3.504005
  H 4.877501 -0.750851 -4.149543
  H 6.905171 -0.544627 -1.307583
 26
 18.084901
  C 0.932243 0.126586 0.367858
  C 2.484666 0.128560 0.373292
  C 3.258288 0.600383 1.546315
  C 2.476755 1.090191 2.763255
  C 3.432557 1.534714 3.868460
  C 3.110602 -0.334229 -0.778422
  C 4.539636 -0.419372 -0.991118
  C 5.100221 -0.869022 -2.115306
  C 4.572292 -1.375736 -3.383227
  H 3.495023 -1.383127 -3.403996
  O 6.353597 -0.789730 -1.916554
  H 0.512449 0.497321 1.289414
  H 0.579810 -0.884001 0.189165
  H 0.580047 0.732169 -0.460780
  H 3.919981 1.410216 1.216901
  H 3.919917 -0.211794 1.869871
  H 1.841351 0.291991 3.150177
  H 1.841776 1.934209 2.489501
  H 4.067823 0.711929 4.188553
  H 2.874672 1.883150 4.734060
  H 4.068103 2.349559 3.529482
  H 2.478174 -0.659792 -1.589786
  H 5.145592 -0.090313 -0.167763
  H 4.952608 -2.376012 -3.551172
  H 4.954035 -0.767903 -4.194471
  H 6.670213 -0.450832 -1.066805
 26
 66.080180
  C 0.879218 0.132606 0.383232
  C 2.502303 0.129049 0.373109
  C 3.273316 0.600016 1.544104
  C 2.494029 1.091485 2.766781
  C 3.452860 1.535779 3.871257
  C 3.075385 -0.332890 -0.777385
  C 4.593127 -0.435742 -1.032645
  C 5.063307 -0.884919 -2.155025
  C 4.619624 -1.399473 -3.442086
  H 3.536415 -1.423320 -3.502940
  O 6.252478 -0.745110 -1.804270
  H 0.495728 0.506701 1.314350
  H 0.550342 -0.882688 0.214560
  H 0.549881 0.748659 -0.441056
  H 3.935631 1.411119 1.212365
  H 3.936333 -0.214511 1.865797
  H 1.857995 0.292839 3.153177
  H 1.857635 1.935224 2.493230
  H 4.088566 0.712325 4.190291
  H 2.896074 1.884333 4.738607
  H 4.088264 2.351330 3.531269
  H 2.430533 -0.660736 -1.594826
  H 5.122495 -0.089914 -0.167320
  H 5.031712 -2.410083 -3.589275
  H 5.032509 -0.769730 -4.245743
  H 6.527390 -0.405202 -0.948585
 26
 128.753744
  C 0.802296 0.135217 0.423388
  C 2.487013 0.143231 0.366360
  C 3.268861 0.622513 1.547861
  C 2.497754 1.094730 2.777339
  C 3.460262 1.540677 3.877177
  C 2.986845 -0.306743 -0.776481
  C 4.710351 -0.457937 -1.076407
  C 5.050251 -0.917381 -2.211854
  C 4.670774 -1.424234 -3.507537
  H 3.587634 -1.449666 -3.609931
  O 6.249217 -0.749590 -1.766543
  H 0.476926 0.508263 1.376032
  H 0.494052 -0.888670 0.266632
  H 0.473584 0.765199 -0.390070
  H 3.915045 1.447278 1.221722
  H 3.936716 -0.189471 1.862193
  H 1.873572 0.285864 3.161376
  H 1.851233 1.933616 2.513765
  H 4.106605 0.721593 4.185038
  H 2.906463 1.876819 4.751014
  H 4.084074 2.365109 3.538257
  H 2.372521 -0.621062 -1.609473
  H 5.093123 -0.108110 -0.144206
  H 5.089820 -2.429511 -3.635700
  H 5.114311 -0.792435 -4.286473
  H 6.577773 -0.432540 -0.914017
 26
 155.545585
  C 0.719990 0.175300 0.519074
  C 2.321907 0.160097 0.369552
  C 3.167557 0.637274 1.506140
  C 2.468907 1.087993 2.789177
  C 3.487754 1.517293 3.831928
  C 2.744326 -0.285695 -0.768040
  C 4.965618 -0.468488 -1.097958
  C 5.132093 -0.940656 -2.256853
  C 4.750027 -1.444719 -3.543093
  H 3.659320 -1.454844 -3.622831
  O 6.439515 -0.742787 -1.747568
  H 0.466663 0.555376 1.487053
  H 0.360475 -0.839102 0.399050
  H 0.314546 0.807355 -0.261364
  H 3.821088 1.437414 1.158411
  H 3.836695 -0.191611 1.782486
  H 1.843461 0.290153 3.195321
  H 1.805708 1.945116 2.577933
  H 4.148621 0.687765 4.095127
  H 2.983717 1.848115 4.739618
  H 4.095857 2.343384 3.462023
  H 2.241833 -0.618872 -1.644696
  H 5.180932 -0.099053 -0.129404
  H 5.148265 -2.445807 -3.677701
  H 5.177694 -0.821498 -4.322149
  H 6.851974 -0.469400 -0.903854
 26
 163.878408
  C 0.566401 0.205631 0.641595
  C 2.102479 0.209474 0.399399
  C 3.021512 0.691684 1.498336
  C 2.409822 1.098293 2.831586
  C 3.502770 1.524252 3.810005
  C 2.534075 -0.227004 -0.744718
  C 5.266725 -0.532018 -1.133166
  C 5.290541 -0.995473 -2.331075
  C 4.866670 -1.460037 -3.618321
  H 3.769854 -1.423726 -3.672195
  O 6.678078 -0.845504 -1.812382
  H 0.339343 0.581493 1.622932
  H 0.197370 -0.811051 0.540935
  H 0.089724 0.824803 -0.111307
  H 3.663185 1.490953 1.124299
  H 3.711133 -0.137283 1.714006
  H 1.830200 0.283661 3.261206
  H 1.751041 1.961704 2.683647
  H 4.190609 0.699296 4.008139
  H 3.066528 1.831063 4.759439
  H 4.073453 2.362135 3.406861
  H 2.035547 -0.547048 -1.634943
  H 5.447934 -0.163491 -0.105705
  H 5.216323 -2.483475 -3.782847
  H 5.303967 -0.831742 -4.407116
  H 7.191125 -0.642600 -1.005289
 26
 163.647131
  C 0.436069 0.244949 0.771339
  C 1.953456 0.268640 0.440717
  C 2.946878 0.708576 1.500435
  C 2.392083 1.092946 2.868981
  C 3.507909 1.532863 3.810568
  C 2.328778 -0.128894 -0.735616
  C 5.443730 -0.562443 -1.228316
  C 5.419731 -1.028272 -2.409898
  C 5.018661 -1.502963 -3.688073
  H 3.926252 -1.462526 -3.754738
  O 6.832395 -0.897731 -1.882155
  H 0.256660 0.590045 1.777614
  H 0.066855 -0.770851 0.662933
  H -0.087371 0.886995 0.066559
  H 3.510305 1.556810 1.108871
  H 3.642214 -0.119334 1.652501
  H 1.815986 0.283656 3.316371
  H 1.711385 1.941851 2.751052
  H 4.212661 0.719423 3.986858
  H 3.093918 1.833627 4.771509
  H 4.047992 2.383661 3.397152
  H 1.827736 -0.416521 -1.635978
  H 5.553207 -0.338570 -0.180755
  H 5.359371 -2.530983 -3.824354
  H 5.461351 -0.892010 -4.475214
  H 7.392508 -0.722597 -1.101359
 26
 163.648499
  C 0.293506 0.258824 0.892894
  C 1.802974 0.268552 0.525498
  C 2.822769 0.727150 1.550898
  C 2.320353 1.135544 2.938019
  C 3.473230 1.585606 3.817151
  C 2.167892 -0.121289 -0.658314
  C 5.678069 -0.666997 -1.313242
  C 5.551120 -1.076282 -2.522627
  C 5.145639 -1.481227 -3.821394
  H 4.054892 -1.386920 -3.879797
  O 7.018156 -1.012768 -1.969477
  H 0.139452 0.625244 1.896987
  H -0.085839 -0.752941 0.814673
  H -0.245238 0.893379 0.194925
  H 3.374691 1.567149 1.129270
  H 3.550104 -0.075377 1.682043
  H 1.778999 0.324978 3.418662
  H 1.629992 1.977098 2.835355
  H 4.187911 0.774744 3.958983
  H 3.111623 1.887206 4.797547
  H 3.993597 2.424961 3.364249
  H 1.662593 -0.412540 -1.552465
  H 5.843335 -0.469908 -0.246237
  H 5.435709 -2.519262 -4.000944
  H 5.618385 -0.863478 -4.589991
  H 7.675095 -0.943114 -1.242962
 26
 139.049520
  C 0.249700 0.291713 0.910504
  C 1.709738 0.281916 0.510067
  C 2.777982 0.721651 1.499626
  C 2.314799 1.121364 2.896822
  C 3.508871 1.519443 3.758949
  C 2.032787 -0.094826 -0.680114
  C 5.997591 -0.636200 -1.390345
  C 5.430807 -1.042655 -2.468400
  C 5.038679 -1.506949 -3.722134
  H 3.955411 -1.330928 -3.773950
  O 7.357516 -0.887267 -1.842920
  H 0.128686 0.648761 1.925195
  H -0.161838 -0.713388 0.839891
  H -0.313012 0.937641 0.241387
  H 3.311278 1.566764 1.058778
  H 3.489238 -0.100880 1.602817
  H 1.794573 0.291975 3.377622
  H 1.629724 1.969509 2.841679
  H 4.202365 0.688657 3.859043
  H 3.178955 1.797918 4.756872
  H 4.038949 2.362671 3.322181
  H 1.574852 -0.395276 -1.591119
  H 5.932484 -0.449629 -0.344768
  H 5.229425 -2.577023 -3.831870
  H 5.490637 -0.944810 -4.546472
  H 8.004167 -0.815206 -1.121320
 26
 119.767505
  C 0.250302 0.421509 0.803506
  C 1.671139 0.260173 0.295864
  C 2.851643 0.560203 1.221198
  C 2.522473 0.986592 2.648932
  C 3.818575 1.213542 3.430289
  C 1.864162 -0.135640 -0.910106
  C 6.023750 -0.479433 -1.170655
  C 5.375112 -1.019866 -2.132670
  C 4.746139 -1.549854 -3.254705
  H 3.650725 -1.593259 -3.088746
  O 7.340049 -0.132391 -1.168494
  H 0.249644 0.803866 1.818765
  H -0.256480 -0.541159 0.782280
  H -0.296824 1.114329 0.158659
  H 3.442557 1.349610 0.750208
  H 3.467532 -0.342271 1.266273
  H 1.936784 0.207622 3.158848
  H 1.946782 1.917543 2.650069
  H 4.411931 0.293307 3.476321
  H 3.593554 1.515300 4.446432
  H 4.416603 1.988290 2.971994
  H 1.625565 -0.443986 -1.894401
  H 5.463833 -0.320395 -0.252624
  H 5.084783 -2.575760 -3.465222
  H 4.875354 -0.889558 -4.106176
  H 7.644984 0.080210 -0.294454
