 26
 0.000000
  C 1.015055 0.111898 0.330358
  C 2.489352 0.126253 0.367562
  C 3.243284 0.602362 1.551537
  C 2.438182 1.086768 2.754371
  C 3.372477 1.536596 3.873875
  C 3.153435 -0.328972 -0.764272
  C 4.532086 -0.392479 -0.923555
  C 5.183523 -0.850292 -2.067842
  C 4.517398 -1.341175 -3.293027
  H 3.437959 -1.314119 -3.224776
  O 6.493783 -0.873028 -2.127450
  H 0.560825 0.478814 1.241938
  H 0.659556 -0.902036 0.140271
  H 0.660329 0.712223 -0.508912
  H 3.904692 1.415888 1.233000
  H 3.903979 -0.205562 1.885420
  H 1.801194 0.284901 3.131664
  H 1.802287 1.927094 2.470959
  H 4.007597 0.717524 4.203886
  H 2.798796 1.881572 4.730534
  H 4.008606 2.355306 3.544934
  H 2.534031 -0.658201 -1.583828
  H 5.165316 -0.066219 -0.110217
  H 4.851443 -2.358955 -3.498422
  H 4.851058 -0.746474 -4.144343
  H 6.936883 -0.550185 -1.322004
 26
 1.810118
  C 1.004853 0.265187 0.280058
  C 2.478091 0.221016 0.332576
  C 3.233975 0.625532 1.541002
  C 2.432400 1.025745 2.776421
  C 3.369745 1.385303 3.925585
  C 3.139055 -0.220978 -0.808195
  C 4.521959 -0.282487 -0.971265
  C 5.182546 -0.824948 -2.068521
  C 4.545120 -1.590414 -3.159042
  H 3.474549 -1.688236 -3.040496
  O 6.494778 -0.756944 -2.161720
  H 0.552788 0.594876 1.206714
  H 0.612116 -0.719949 0.023758
  H 0.685435 0.927095 -0.526778
  H 3.885685 1.465118 1.270395
  H 3.907941 -0.192251 1.818279
  H 1.790447 0.201932 3.092735
  H 1.803258 1.889798 2.556893
  H 3.998202 0.539446 4.195174
  H 2.798143 1.671645 4.804935
  H 4.012354 2.221021 3.657354
  H 2.516297 -0.524829 -1.637108
  H 5.156174 0.124164 -0.196958
  H 4.996059 -2.581728 -3.210612
  H 4.775258 -1.109776 -4.109952
  H 6.922065 -0.014675 -1.697121
 26
 6.740881
  C 1.006622 0.222829 0.297787
  C 2.478731 0.189122 0.354505
  C 3.226761 0.628248 1.553239
  C 2.418791 1.048013 2.779841
  C 3.350795 1.437660 3.924797
  C 3.144131 -0.264188 -0.780493
  C 4.528145 -0.347674 -0.930875
  C 5.189386 -0.865721 -2.035527
  C 4.549614 -1.517140 -3.193896
  H 3.473326 -1.581274 -3.113078
  O 6.520921 -0.889842 -2.057537
  H 0.547233 0.507029 1.236223
  H 0.621556 -0.748243 -0.011572
  H 0.688181 0.923261 -0.477092
  H 3.871141 1.466092 1.264462
  H 3.910685 -0.175121 1.849172
  H 1.783197 0.225123 3.111601
  H 1.782213 1.902973 2.541406
  H 3.977925 0.599987 4.218281
  H 2.774751 1.745668 4.794322
  H 3.994867 2.266308 3.638587
  H 2.522943 -0.572629 -1.608663
  H 5.157629 -0.019230 -0.116376
  H 4.965672 -2.520161 -3.314087
  H 4.827167 -0.976222 -4.097992
  H 6.976381 -0.039798 -1.947364
 26
 10.641352
  C 1.004910 0.218184 0.305604
  C 2.473764 0.183902 0.369050
  C 3.215500 0.633981 1.564333
  C 2.404620 1.047442 2.789474
  C 3.332668 1.444967 3.933063
  C 3.143847 -0.297470 -0.754605
  C 4.529698 -0.365255 -0.904854
  C 5.200367 -0.871874 -2.008759
  C 4.577049 -1.481194 -3.197143
  H 3.496787 -1.498821 -3.155615
  O 6.541385 -0.909160 -1.964315
  H 0.541752 0.520615 1.235497
  H 0.617801 -0.758271 0.009243
  H 0.693012 0.905861 -0.484037
  H 3.852102 1.478043 1.273066
  H 3.910583 -0.158750 1.860321
  H 1.775156 0.218274 3.121391
  H 1.761261 1.897104 2.550786
  H 3.962153 0.613181 4.230086
  H 2.754967 1.752465 4.799293
  H 3.973801 2.276362 3.644876
  H 2.526137 -0.633741 -1.571925
  H 5.161255 -0.000321 -0.106562
  H 4.954868 -2.501841 -3.305814
  H 4.903608 -0.954380 -4.093172
  H 7.010545 -0.126459 -2.289402
 26
 6.393284
  C 1.002040 0.176584 0.330375
  C 2.474464 0.184778 0.387123
  C 3.206660 0.681250 1.569924
  C 2.389824 1.063447 2.797051
  C 3.308552 1.509288 3.931731
  C 3.151449 -0.334214 -0.711251
  C 4.536161 -0.372558 -0.867118
  C 5.218142 -0.884707 -1.966385
  C 4.604383 -1.310376 -3.241275
  H 3.527509 -1.198627 -3.251196
  O 6.539284 -0.995669 -1.844299
  H 0.535785 0.497523 1.254018
  H 0.639704 -0.817387 0.069773
  H 0.668226 0.830545 -0.478493
  H 3.793144 1.557157 1.262809
  H 3.946696 -0.070077 1.864047
  H 1.802709 0.209130 3.140104
  H 1.706304 1.881779 2.563118
  H 3.977227 0.704299 4.231479
  H 2.724474 1.798789 4.800558
  H 3.911824 2.361570 3.630912
  H 2.536759 -0.729520 -1.506266
  H 5.171770 0.001486 -0.070148
  H 4.864504 -2.355755 -3.415099
  H 5.022319 -0.753051 -4.074276
  H 7.055858 -0.607324 -2.568179
 26
 6.031505
  C 0.980320 0.325338 0.263399
  C 2.455738 0.312424 0.315037
  C 3.206108 0.668986 1.543423
  C 2.402608 0.947499 2.809995
  C 3.335068 1.267319 3.974296
  C 3.134138 -0.079080 -0.835624
  C 4.514881 -0.094543 -0.987318
  C 5.213931 -0.735470 -1.997838
  C 4.644408 -1.668722 -2.989656
  H 3.565668 -1.740101 -2.913018
  O 6.525716 -0.555421 -1.958435
  H 0.522831 0.603678 1.202610
  H 0.609040 -0.655206 -0.032964
  H 0.646521 1.013380 -0.514903
  H 3.818007 1.550214 1.318165
  H 3.926103 -0.128536 1.757533
  H 1.803458 0.074635 3.072089
  H 1.731095 1.793803 2.658541
  H 3.996574 0.428888 4.184919
  H 2.760446 1.475754 4.874239
  H 3.946448 2.140936 3.755283
  H 2.529919 -0.367707 -1.685298
  H 5.149623 0.530059 -0.369939
  H 5.078505 -2.656020 -2.825001
  H 4.913890 -1.378602 -4.004702
  H 6.973891 -0.461418 -2.813772
 26
 14.948474
  C 0.906667 0.484698 0.239836
  C 2.380791 0.453847 0.230118
  C 3.187650 0.682501 1.449699
  C 2.447693 0.821693 2.775691
  C 3.436210 1.015499 3.921680
  C 3.014949 0.152325 -0.959322
  C 4.403801 0.132108 -1.146782
  C 5.163396 -0.654392 -1.990186
  C 4.769428 -1.916445 -2.638177
  H 3.711387 -2.108808 -2.499411
  O 6.436447 -0.246774 -2.023759
  H 0.493319 0.672917 1.222790
  H 0.507833 -0.458197 -0.134954
  H 0.552742 1.253026 -0.449612
  H 3.790589 1.584376 1.284158
  H 3.917153 -0.127829 1.543858
  H 1.860230 -0.077396 2.971250
  H 1.768864 1.675744 2.751490
  H 4.104957 0.161795 4.006305
  H 2.907093 1.120334 4.865637
  H 4.037909 1.908763 3.770225
  H 2.397771 -0.031066 -1.829857
  H 5.095630 0.898017 -0.804172
  H 5.349700 -2.734392 -2.210558
  H 4.996197 -1.897463 -3.704224
  H 6.841202 -0.178839 -2.904090
 26
 29.667786
  C 0.835515 0.630983 0.250152
  C 2.303113 0.546576 0.180068
  C 3.167468 0.724926 1.366181
  C 2.499691 0.688649 2.737552
  C 3.539932 0.849553 3.842600
  C 2.875815 0.275657 -1.038679
  C 4.252796 0.184646 -1.271366
  C 5.087380 -0.650902 -1.968451
  C 4.935311 -2.058636 -2.368021
  H 3.909230 -2.383646 -2.231379
  O 6.301895 -0.053880 -2.060173
  H 0.470582 0.816055 1.252110
  H 0.386343 -0.290450 -0.120648
  H 0.482760 1.422873 -0.412404
  H 3.687695 1.684156 1.255056
  H 3.954217 -0.035030 1.343001
  H 1.988892 -0.266449 2.873647
  H 1.764852 1.489317 2.830199
  H 4.246004 0.021992 3.832916
  H 3.058853 0.864360 4.817503
  H 4.096348 1.775653 3.723454
  H 2.224672 0.172145 -1.897117
  H 5.038509 0.982906 -1.137396
  H 5.596959 -2.686749 -1.770754
  H 5.216910 -2.193666 -3.412449
  H 6.676775 0.043744 -2.949691
 26
 49.233914
  C 0.776085 0.770483 0.279487
  C 2.232849 0.577762 0.158151
  C 3.147313 0.655490 1.323453
  C 2.523466 0.681624 2.716544
  C 3.614366 0.700137 3.783871
  C 2.753119 0.309607 -1.102719
  C 4.107175 0.140530 -1.388126
  C 5.031374 -0.657676 -1.954444
  C 5.121066 -2.107862 -2.184280
  H 4.170499 -2.583935 -1.967285
  O 6.155938 0.122863 -2.120368
  H 0.463298 0.954579 1.299533
  H 0.240852 -0.098562 -0.102044
  H 0.468722 1.618292 -0.336324
  H 3.801142 1.529177 1.207797
  H 3.827062 -0.202122 1.273268
  H 1.918069 -0.214806 2.864798
  H 1.890542 1.560717 2.850494
  H 4.226904 -0.196552 3.721602
  H 3.174082 0.725752 4.777381
  H 4.262054 1.564133 3.667921
  H 2.069207 0.286922 -1.943903
  H 4.962424 0.997482 -1.446156
  H 5.901355 -2.538598 -1.556861
  H 5.388582 -2.308030 -3.221759
  H 6.498157 0.231472 -3.026997
 26
 65.209668
  C 0.752216 0.840754 0.300039
  C 2.201305 0.576878 0.156750
  C 3.143829 0.623731 1.306594
  C 2.536433 0.680624 2.705926
  C 3.635274 0.677030 3.765231
  C 2.682981 0.257558 -1.099350
  C 3.997703 0.012423 -1.405892
  C 4.963105 -0.704008 -1.933704
  C 5.189368 -2.136339 -2.210984
  H 4.267907 -2.691426 -2.066062
  O 6.088738 0.202994 -2.040272
  H 0.462278 1.046787 1.323110
  H 0.175368 -0.012137 -0.059720
  H 0.467158 1.688509 -0.324343
  H 3.791399 1.498748 1.183014
  H 3.803722 -0.248906 1.245625
  H 1.887206 -0.183060 2.865944
  H 1.939165 1.586001 2.828399
  H 4.218354 -0.239669 3.716326
  H 3.203003 0.748408 4.761472
  H 4.308315 1.521315 3.628445
  H 1.987155 0.282610 -1.931700
  H 5.202126 0.945963 -1.528679
  H 5.954959 -2.533294 -1.546298
  H 5.525772 -2.277122 -3.237285
  H 6.472055 0.311635 -2.936493
 26
 54.969703
  C 0.694745 0.806580 0.301042
  C 2.150969 0.544664 0.148359
  C 3.116688 0.605486 1.287054
  C 2.540250 0.710776 2.694865
  C 3.660550 0.714159 3.731292
  C 2.620662 0.195260 -1.112680
  C 3.917068 -0.067759 -1.433063
  C 4.929272 -0.709323 -1.907949
  C 5.290096 -2.132492 -2.104904
  H 4.423969 -2.761831 -1.916099
  O 6.051101 0.283150 -2.113265
  H 0.410257 1.024892 1.326939
  H 0.116854 -0.053292 -0.040360
  H 0.398887 1.650447 -0.330920
  H 3.790163 1.453493 1.130136
  H 3.744238 -0.294785 1.242887
  H 1.880324 -0.134356 2.890563
  H 1.960657 1.628818 2.805285
  H 4.229756 -0.211687 3.687632
  H 3.251124 0.810859 4.733362
  H 4.337963 1.543854 3.563347
  H 1.910333 0.195461 -1.934810
  H 5.436121 0.993037 -1.729652
  H 6.091019 -2.416583 -1.423497
  H 5.627296 -2.306128 -3.125305
  H 6.404366 0.345808 -3.029674
 26
 48.229681
  C 0.716652 0.861094 0.286901
  C 2.164027 0.559055 0.138826
  C 3.117695 0.568771 1.289039
  C 2.518557 0.697115 2.687191
  C 3.616512 0.665477 3.746412
  C 2.637032 0.230044 -1.123699
  C 3.923350 -0.044502 -1.442214
  C 4.937265 -0.687958 -1.914332
  C 5.248917 -2.123817 -2.107935
  H 4.363470 -2.720880 -1.916690
  O 6.140228 0.199293 -2.119538
  H 0.437260 1.073942 1.311811
  H 0.116483 0.021394 -0.067203
  H 0.446198 1.718147 -0.332664
  H 3.825290 1.393765 1.147544
  H 3.710598 -0.351270 1.247677
  H 1.825420 -0.126241 2.872806
  H 1.968642 1.635394 2.781617
  H 4.153380 -0.280145 3.717962
  H 3.189491 0.781189 4.739990
  H 4.329009 1.471985 3.589221
  H 1.935641 0.267502 -1.950514
  H 5.713536 1.016660 -1.761773
  H 6.040635 -2.432065 -1.427217
  H 5.578570 -2.309243 -3.127945
  H 6.460172 0.243497 -3.049580
 26
 45.227703
  C 0.693718 0.807307 0.290299
  C 2.145614 0.533344 0.130453
  C 3.101663 0.512875 1.278761
  C 2.516599 0.708820 2.674530
  C 3.619373 0.677176 3.728480
  C 2.622855 0.261985 -1.143716
  C 3.908429 0.009441 -1.470893
  C 4.937960 -0.626567 -1.915914
  C 5.225382 -2.080528 -2.051041
  H 4.340808 -2.656282 -1.800913
  O 6.187097 0.164795 -2.164902
  H 0.413766 0.979338 1.322742
  H 0.105886 -0.028935 -0.091507
  H 0.408629 1.682694 -0.295873
  H 3.855649 1.290413 1.114816
  H 3.638908 -0.441929 1.257727
  H 1.796518 -0.082357 2.893434
  H 2.000350 1.668832 2.736976
  H 4.137993 -0.278895 3.716223
  H 3.200221 0.821449 4.721608
  H 4.346176 1.466726 3.550998
  H 1.921810 0.325305 -1.968575
  H 6.037645 1.029235 -1.723606
  H 6.035406 -2.362812 -1.381628
  H 5.516874 -2.320304 -3.071342
  H 6.398698 0.267076 -3.121447
 26
 46.039016
  C 0.687704 0.690702 0.285437
  C 2.154979 0.508560 0.126478
  C 3.107183 0.549561 1.278009
  C 2.510602 0.744813 2.669157
  C 3.609411 0.753837 3.728859
  C 2.649969 0.268279 -1.142829
  C 3.955235 0.103472 -1.467824
  C 4.960961 -0.581181 -1.900199
  C 5.105227 -2.050273 -2.127512
  H 4.167881 -2.551690 -1.914915
  O 6.291363 0.060957 -2.092842
  H 0.398512 0.860466 1.315971
  H 0.154330 -0.186908 -0.083240
  H 0.347188 1.537236 -0.313156
  H 3.826874 1.355901 1.098495
  H 3.684177 -0.382292 1.276314
  H 1.810940 -0.062302 2.895824
  H 1.969041 1.691776 2.719193
  H 4.156899 -0.186200 3.725798
  H 3.181402 0.892744 4.719063
  H 4.312716 1.563758 3.548859
  H 1.950785 0.305282 -1.971377
  H 6.404285 0.827096 -1.487332
  H 5.880173 -2.454346 -1.479765
  H 5.378121 -2.247563 -3.161319
  H 6.458069 0.316516 -3.029456
 26
 43.920664
  C 0.690441 0.944097 0.267464
  C 2.120254 0.571904 0.098802
  C 3.084122 0.502339 1.236696
  C 2.511271 0.678190 2.640190
  C 3.609302 0.539254 3.690846
  C 2.564794 0.255747 -1.178762
  C 3.819836 -0.089244 -1.516809
  C 4.931908 -0.642341 -1.843366
  C 5.359572 -2.065981 -1.838302
  H 4.556350 -2.690380 -1.463293
  O 6.101227 0.208227 -2.276280
  H 0.438527 1.169245 1.296668
  H 0.045061 0.132614 -0.074748
  H 0.450060 1.814610 -0.346021
  H 3.856769 1.264485 1.086672
  H 3.598681 -0.464321 1.188551
  H 1.745369 -0.075954 2.827389
  H 2.053349 1.663031 2.741333
  H 4.074309 -0.442301 3.635488
  H 3.197323 0.661934 4.689643
  H 4.379376 1.294960 3.547562
  H 1.851269 0.321092 -1.992878
  H 6.049600 1.116942 -1.904987
  H 6.229861 -2.183901 -1.197991
  H 5.617487 -2.398822 -2.840827
  H 6.177909 0.242774 -3.257351
