 26
 0.000000
  C 0.903301 0.045593 0.270044
  C 2.395312 0.058706 0.087557
  C 3.241284 -0.011014 1.351987
  C 2.522991 -0.088209 2.696046
  H 3.245887 -0.132488 3.502860
  C 2.993946 0.128366 -1.119151
  C 2.354110 0.205866 -2.493225
  C 0.843620 0.218976 -2.711182
  H 0.632640 0.278658 -3.773905
  C 4.453002 0.131885 -1.207884
  C 5.193642 0.194214 -2.316461
  O 6.553402 0.193229 -2.330023
  H 0.610016 -0.008727 1.312521
  H 0.458878 -0.819946 -0.215399
  H 0.457337 0.955755 -0.122727
  H 3.886226 0.873391 1.381775
  H 3.889460 -0.890812 1.282369
  H 1.897269 -0.977922 2.749450
  H 1.894136 0.787595 2.849256
  H 2.745770 -0.642955 -3.064566
  H 2.746728 1.112879 -2.965979
  H 0.384263 1.078505 -2.231920
  H 0.383243 -0.688120 -2.330838
  H 4.999893 0.078327 -0.277173
  H 4.816448 0.252090 -3.323910
  H 6.884053 0.141136 -1.423709
 26
 -0.336993
  C 0.905865 -0.102497 0.270014
  C 2.393544 0.001490 0.085338
  C 3.239913 0.010086 1.350734
  C 2.507342 0.024214 2.689196
  H 3.242201 0.089667 3.490145
  C 2.990660 0.078967 -1.119495
  C 2.351730 0.201530 -2.492181
  C 0.842628 0.278087 -2.699119
  H 0.657515 0.455751 -3.758249
  C 4.448392 0.081701 -1.212860
  C 5.190008 0.176826 -2.316602
  O 6.547468 0.147420 -2.327948
  H 0.656431 -0.434517 1.270567
  H 0.486403 -0.822301 -0.423567
  H 0.420685 0.859791 0.113049
  H 3.875981 0.900145 1.323698
  H 3.897707 -0.864966 1.345674
  H 1.932444 -0.885626 2.846473
  H 1.845710 0.883542 2.769159
  H 2.724598 -0.633688 -3.093757
  H 2.772489 1.115520 -2.924499
  H 0.401032 1.098728 -2.143138
  H 0.342028 -0.648132 -2.435176
  H 4.997593 -0.026493 -0.287703
  H 4.814792 0.288093 -3.319647
  H 6.877427 0.047295 -1.425776
 26
 0.057354
  C 0.939844 -0.268273 0.267652
  C 2.409444 -0.017749 0.092630
  C 3.240635 0.087545 1.360293
  C 2.469232 0.145337 2.675460
  H 3.172406 0.282631 3.495071
  C 2.997482 0.041350 -1.118752
  C 2.348705 0.222710 -2.482146
  C 0.843028 0.378686 -2.673607
  H 0.663712 0.639903 -3.716248
  C 4.454413 0.040970 -1.225161
  C 5.193266 0.137834 -2.332123
  O 6.551253 0.074968 -2.352312
  H 0.763255 -0.856926 1.163001
  H 0.579340 -0.847921 -0.571070
  H 0.370131 0.655285 0.354142
  H 3.842490 0.998718 1.291052
  H 3.933588 -0.758514 1.417126
  H 1.920671 -0.774063 2.862925
  H 1.772554 0.979953 2.684536
  H 2.685564 -0.597247 -3.124381
  H 2.800525 1.139577 -2.875245
  H 0.443684 1.177332 -2.055745
  H 0.295163 -0.537396 -2.475682
  H 5.003349 -0.096310 -0.302698
  H 4.814414 0.274568 -3.331252
  H 6.883662 -0.047838 -1.453628
 26
 1.525647
  C 0.998637 -0.478509 0.258299
  C 2.427672 -0.058419 0.091184
  C 3.227314 0.165539 1.359854
  C 2.403576 0.271828 2.639502
  H 3.066247 0.474478 3.478897
  C 3.008750 -0.000629 -1.124489
  C 2.347939 0.251644 -2.471374
  C 0.849449 0.503299 -2.614219
  H 0.662369 0.846853 -3.631182
  C 4.463808 -0.002332 -1.237993
  C 5.197355 0.079471 -2.349790
  O 6.552776 -0.022831 -2.381986
  H 0.954032 -1.280870 0.994681
  H 0.666589 -0.901473 -0.678957
  H 0.340302 0.320215 0.590850
  H 3.789055 1.096649 1.240981
  H 3.958726 -0.639032 1.495286
  H 1.869490 -0.650052 2.852008
  H 1.684280 1.084252 2.572607
  H 2.629391 -0.550331 -3.160988
  H 2.838430 1.163479 -2.827334
  H 0.514475 1.277419 -1.929413
  H 0.248726 -0.388777 -2.465152
  H 5.011604 -0.160617 -0.317185
  H 4.812365 0.231526 -3.344397
  H 6.888598 -0.158725 -1.486359
 26
 5.581820
  C 1.063727 -0.638088 0.232653
  C 2.444351 -0.077104 0.089575
  C 3.188274 0.301237 1.351964
  C 2.335570 0.319737 2.615464
  H 2.964259 0.540085 3.475871
  C 3.027812 -0.036559 -1.130534
  C 2.357370 0.308459 -2.454396
  C 0.863725 0.616365 -2.536284
  H 0.657111 1.030068 -3.522810
  C 4.477678 -0.059591 -1.255060
  C 5.200617 -0.028937 -2.377083
  O 6.550104 -0.163501 -2.422603
  H 1.153371 -1.556359 0.820944
  H 0.742541 -0.960991 -0.748908
  H 0.342135 0.006823 0.725154
  H 3.610135 1.298186 1.199255
  H 4.030722 -0.376443 1.525895
  H 1.857389 -0.640821 2.784983
  H 1.566931 1.086330 2.554133
  H 2.599243 -0.447709 -3.208791
  H 2.868557 1.231023 -2.750414
  H 0.579799 1.354139 -1.790465
  H 0.234044 -0.259394 -2.420898
  H 5.027499 -0.184437 -0.331060
  H 4.801980 0.082764 -3.371452
  H 6.891217 -0.268895 -1.532986
 26
 15.870247
  C 1.164244 -0.814364 0.169909
  C 2.492697 -0.125889 0.105520
  C 3.115218 0.484380 1.335329
  C 2.251279 0.377952 2.587808
  H 2.804996 0.737828 3.452908
  C 3.055435 -0.092750 -1.132840
  C 2.370337 0.418956 -2.395039
  C 0.876732 0.736764 -2.393584
  H 0.638898 1.269648 -3.313211
  C 4.495426 -0.171790 -1.284954
  C 5.202471 -0.122108 -2.421402
  O 6.538748 -0.372881 -2.509421
  H 1.326829 -1.775622 0.672962
  H 0.996663 -1.129499 -0.858705
  H 0.354484 -0.298548 0.670621
  H 3.311692 1.537617 1.113337
  H 4.089030 0.028216 1.552247
  H 1.963324 -0.653484 2.773269
  H 1.350200 0.978291 2.489137
  H 2.578209 -0.244293 -3.241799
  H 2.891170 1.361714 -2.583747
  H 0.618978 1.373035 -1.550984
  H 0.251639 -0.149241 -2.360741
  H 5.049840 -0.379884 -0.374891
  H 4.791176 0.076432 -3.397343
  H 6.889726 -0.566275 -1.625228
 26
 31.017432
  C 1.259105 -0.961250 0.139843
  C 2.520230 -0.172397 0.128423
  C 3.084387 0.516160 1.309159
  C 2.162455 0.480689 2.511457
  H 2.641839 0.955238 3.366443
  C 3.059270 -0.181809 -1.132473
  C 2.370989 0.480199 -2.326136
  C 0.891322 0.824451 -2.248588
  H 0.620043 1.386112 -3.136867
  C 4.486878 -0.257768 -1.303751
  C 5.181858 -0.140484 -2.440961
  O 6.524368 -0.397586 -2.564687
  H 1.451661 -1.976317 0.502571
  H 1.276430 -1.235671 -0.944039
  H 0.404597 -0.553262 0.650441
  H 3.301226 1.544853 1.030140
  H 4.039622 0.066883 1.592566
  H 1.921332 -0.544406 2.777551
  H 1.238741 1.011716 2.302258
  H 2.536353 -0.104485 -3.233856
  H 2.915819 1.418687 -2.441669
  H 0.686400 1.439248 -1.377572
  H 0.259661 -0.050382 -2.205325
  H 5.044441 -0.527366 -0.411138
  H 4.754178 0.117071 -3.398304
  H 6.878801 -0.643759 -1.715933
 26
 57.012931
  C 1.334687 -1.053423 0.097133
  C 2.503226 -0.159011 0.146173
  C 3.021662 0.619174 1.309101
  C 2.102703 0.558540 2.522524
  H 2.554865 1.075742 3.366190
  C 3.042008 -0.226681 -1.138835
  C 2.364992 0.523223 -2.288554
  C 0.887602 0.864639 -2.138118
  H 0.578704 1.483857 -2.977646
  C 4.476990 -0.354627 -1.322097
  C 5.171153 -0.223616 -2.459951
  O 6.504041 -0.470659 -2.589029
  H 1.535610 -2.116644 0.260669
  H 1.637062 -1.255301 -1.072064
  H 0.429142 -0.758172 0.615468
  H 3.176487 1.658579 1.004980
  H 4.010673 0.232383 1.592127
  H 1.918926 -0.474377 2.808686
  H 1.148774 1.032304 2.304068
  H 2.502058 -0.026948 -3.224686
  H 2.918516 1.461842 -2.377425
  H 0.713634 1.417603 -1.218501
  H 0.262960 -0.023867 -2.125846
  H 5.025983 -0.663984 -0.436217
  H 4.745200 0.067030 -3.405730
  H 6.864773 -0.736132 -1.733476
 26
 71.505100
  C 1.368716 -1.072992 0.136210
  C 2.467845 -0.181164 0.151995
  C 2.996606 0.634062 1.285365
  C 2.105937 0.599326 2.521288
  H 2.568946 1.149569 3.337575
  C 3.015173 -0.266098 -1.175746
  C 2.351779 0.549138 -2.298506
  C 0.873791 0.869845 -2.126031
  H 0.552109 1.525466 -2.932312
  C 4.464197 -0.406438 -1.333567
  C 5.178752 -0.233968 -2.446661
  O 6.515594 -0.465444 -2.557998
  H 1.559558 -2.138295 0.165155
  H 1.888871 -1.209206 -1.225293
  H 0.460805 -0.837068 0.696293
  H 3.140977 1.670540 0.961057
  H 3.991349 0.253110 1.547238
  H 1.943714 -0.426888 2.843030
  H 1.140284 1.051954 2.309587
  H 2.498235 0.038573 -3.252667
  H 2.898661 1.497461 -2.349676
  H 0.697463 1.374856 -1.179949
  H 0.262088 -0.028975 -2.153594
  H 4.987112 -0.761965 -0.450422
  H 4.771527 0.098225 -3.387433
  H 6.861745 -0.762687 -1.706795
 26
 57.545283
  C 1.357094 -1.083870 0.208521
  C 2.411204 -0.218589 0.166383
  C 2.977748 0.620753 1.260253
  C 2.121626 0.644409 2.520175
  H 2.615096 1.215430 3.303637
  C 2.972944 -0.309021 -1.213449
  C 2.329216 0.578861 -2.309726
  C 0.846333 0.863085 -2.129375
  H 0.513993 1.565487 -2.890375
  C 4.432719 -0.494985 -1.340107
  C 5.188419 -0.257043 -2.425284
  O 6.538646 -0.433051 -2.493551
  H 1.539803 -2.142355 0.139970
  H 2.101707 -1.129025 -1.359073
  H 0.470180 -0.903628 0.819690
  H 3.135478 1.647359 0.908068
  H 3.966580 0.215654 1.498377
  H 1.947588 -0.367808 2.878410
  H 1.156740 1.102833 2.317831
  H 2.507127 0.120476 -3.281160
  H 2.861523 1.540513 -2.308371
  H 0.656331 1.301692 -1.153403
  H 0.254051 -0.045806 -2.217808
  H 4.921478 -0.893488 -0.455822
  H 4.804272 0.100349 -3.367766
  H 6.867590 -0.736437 -1.637045
 26
 34.036246
  C 1.387635 -1.168958 0.278651
  C 2.351051 -0.262048 0.127662
  C 2.885942 0.683829 1.148199
  C 2.123045 0.684488 2.466500
  H 2.630251 1.314823 3.193925
  C 2.961148 -0.370511 -1.261190
  C 2.357803 0.637357 -2.270644
  C 0.870774 0.901703 -2.081512
  H 0.537818 1.647593 -2.800361
  C 4.436785 -0.496869 -1.328482
  C 5.198093 -0.263592 -2.377412
  O 6.527362 -0.533467 -2.453483
  H 1.564268 -2.211924 0.086683
  H 2.262760 -1.221610 -1.486254
  H 0.562510 -1.036043 0.972072
  H 2.917845 1.703703 0.746628
  H 3.924381 0.389550 1.321937
  H 2.059230 -0.323870 2.868981
  H 1.115173 1.067742 2.326352
  H 2.535590 0.260160 -3.277805
  H 2.891486 1.589863 -2.179722
  H 0.664722 1.269326 -1.081206
  H 0.288808 -0.005319 -2.238680
  H 4.899680 -0.929725 -0.447252
  H 4.846328 0.175896 -3.296278
  H 6.822430 -0.936617 -1.627494
 26
 16.905070
  C 1.365130 -1.216712 0.355636
  C 2.332280 -0.332759 0.118775
  C 2.897533 0.662930 1.083198
  C 2.142030 0.780438 2.400404
  H 2.659588 1.463344 3.070436
  C 2.930638 -0.432318 -1.276297
  C 2.370994 0.655574 -2.221365
  C 0.877190 0.900918 -2.062799
  H 0.567768 1.712094 -2.718480
  C 4.406726 -0.603268 -1.343568
  C 5.197834 -0.253882 -2.348073
  O 6.544301 -0.439905 -2.385462
  H 1.411690 -2.232606 0.001351
  H 2.300561 -1.289973 -1.583058
  H 0.625329 -1.099734 1.137566
  H 2.966293 1.651301 0.615391
  H 3.924823 0.340419 1.278259
  H 2.067896 -0.189793 2.885771
  H 1.137325 1.160962 2.232708
  H 2.585758 0.357508 -3.247537
  H 2.902001 1.594931 -2.034081
  H 0.631239 1.174695 -1.040545
  H 0.307818 0.011571 -2.325579
  H 4.850419 -1.098107 -0.485280
  H 4.855845 0.228665 -3.249440
  H 6.834857 -0.865003 -1.568554
 26
 5.063373
  C 1.337019 -1.222463 0.417391
  C 2.304677 -0.374519 0.096742
  C 2.917247 0.641678 1.016252
  C 2.206507 0.822292 2.351092
  H 2.755521 1.525201 2.973821
  C 2.889644 -0.479267 -1.300004
  C 2.367090 0.672064 -2.185536
  C 0.862910 0.886116 -2.082054
  H 0.567710 1.734844 -2.695262
  C 4.377471 -0.623544 -1.324647
  C 5.195369 -0.214941 -2.282393
  O 6.543623 -0.389596 -2.287450
  H 1.211179 -2.176132 -0.066871
  H 2.364531 -1.367787 -1.681082
  H 0.712752 -1.101138 1.289266
  H 2.988460 1.609583 0.510555
  H 3.942988 0.307200 1.198249
  H 2.136534 -0.125105 2.879863
  H 1.201341 1.209915 2.202002
  H 2.620078 0.439700 -3.221050
  H 2.884665 1.597432 -1.920033
  H 0.565240 1.084843 -1.056145
  H 0.324435 0.006862 -2.429110
  H 4.799206 -1.155531 -0.477831
  H 4.878142 0.312365 -3.167659
  H 6.812735 -0.857484 -1.486754
 26
 -1.158861
  C 1.392738 -1.271012 0.497695
  C 2.306337 -0.405582 0.089882
  C 2.890308 0.687246 0.941464
  C 2.259187 0.845354 2.318528
  H 2.760009 1.640725 2.866372
  C 2.846726 -0.499670 -1.324705
  C 2.368640 0.688498 -2.177083
  C 0.858191 0.879725 -2.116569
  H 0.562986 1.727624 -2.730844
  C 4.338341 -0.668763 -1.319695
  C 5.200255 -0.144256 -2.176965
  O 6.545582 -0.341806 -2.154076
  H 1.109019 -2.117792 -0.106271
  H 2.376405 -1.394120 -1.756377
  H 0.887525 -1.207025 1.445783
  H 2.821900 1.637646 0.405731
  H 3.957202 0.471803 1.058807
  H 2.347785 -0.073918 2.892206
  H 1.205722 1.101652 2.232297
  H 2.656777 0.502502 -3.213356
  H 2.870639 1.601699 -1.852516
  H 0.528395 1.061295 -1.096944
  H 0.346929 -0.006397 -2.486240
  H 4.714893 -1.314208 -0.532286
  H 4.926507 0.506764 -2.991536
  H 6.774099 -0.930039 -1.423199
 26
 -1.982178
  C 1.501238 -1.354511 0.566820
  C 2.277561 -0.400537 0.080110
  C 2.745635 0.797593 0.859636
  C 2.351242 0.816760 2.330714
  H 2.739885 1.715928 2.804192
  C 2.788011 -0.490683 -1.349943
  C 2.394233 0.733648 -2.185678
  C 0.886148 0.957466 -2.184060
  H 0.630195 1.814999 -2.802545
  C 4.267514 -0.754839 -1.325265
  C 5.192281 -0.177422 -2.075504
  O 6.523501 -0.451947 -2.025833
  H 1.235605 -2.219109 -0.019455
  H 2.277730 -1.357293 -1.806799
  H 1.045393 -1.302556 1.540449
  H 2.366535 1.705652 0.383481
  H 3.837233 0.833787 0.779253
  H 2.756197 -0.047925 2.851208
  H 1.269578 0.817115 2.442826
  H 2.720802 0.566495 -3.213981
  H 2.906201 1.622138 -1.814143
  H 0.517751 1.135680 -1.176866
  H 0.373322 0.083869 -2.580668
  H 4.573444 -1.505022 -0.602921
  H 4.988466 0.579293 -2.815845
  H 6.687399 -1.140637 -1.369075
