17

H 1.3752724303217838 0.14028276932186015 0.4004095339958695
C 2.445261 0.138532 0.395784
C 3.234973 0.607589 1.562934
C 2.461488 1.098287 2.784371
H 3.1298426673106214 1.4098444531761112 3.5596993124293377
C 3.056527 -0.32624 -0.761266
C 4.434557 -0.412807 -0.977341
C 5.116634 -0.862171 -2.097644
H 4.765001295121085 -1.2383924358355083 -3.0355735666932597
O 6.441363 -0.85411 -2.077903
H 3.890881 1.41925 1.227711
H 3.891049 -0.210235 1.882449
H 1.823595 0.301943 3.173218
H 1.823488 1.942218 2.514202
H 2.395882 -0.642369 -1.548407
H 5.050449 -0.080233 -0.149165
H 6.799446 -0.516763 -1.236311
