 12
 0.000000
  C 0.992992 0.145280 0.412679
  C 2.454164 0.140014 0.398985
  C 3.233378 0.599198 1.541805
  H 2.617447 0.931873 2.370987
  C 3.090350 -0.319626 -0.745615
  H 4.161455 -0.366482 -0.862872
  H 0.581015 0.519759 1.345029
  H 0.607543 -0.861270 0.223661
  H 0.607279 0.741401 -0.419928
  H 3.912183 1.402685 1.237786
  H 3.912606 -0.191088 1.877727
  H 2.499068 -0.656477 -1.583728
 12
 6.131233
  C 0.965585 0.152490 0.430559
  C 2.457092 0.123451 0.358000
  C 3.254365 0.578952 1.491438
  H 2.650446 0.913088 2.325318
  C 3.058325 -0.328837 -0.768147
  H 4.088115 -0.248615 -0.568887
  H 0.583443 0.528553 1.366544
  H 0.569843 -0.845466 0.236308
  H 0.569858 0.738923 -0.399965
  H 3.937869 1.376279 1.183373
  H 3.939030 -0.209300 1.819607
  H 2.600885 -0.694248 -1.677614
 12
 21.388432
  C 0.957569 0.156200 0.439739
  C 2.469123 0.108725 0.321571
  C 3.267043 0.564706 1.455995
  H 2.660242 0.901293 2.296346
  C 3.053121 -0.341602 -0.799977
  H 3.991039 -0.170270 -0.372799
  H 0.609827 0.537517 1.388530
  H 0.549422 -0.845015 0.252193
  H 0.549624 0.749311 -0.388470
  H 3.948852 1.371887 1.153331
  H 3.950302 -0.226675 1.794694
  H 2.679958 -0.714287 -1.728464
 12
 40.047903
  C 0.961027 0.157519 0.444168
  C 2.493175 0.100855 0.303372
  C 3.282440 0.560887 1.445818
  H 2.667302 0.891606 2.271991
  C 3.053803 -0.354952 -0.833440
  H 3.894522 -0.123381 -0.252024
  H 0.621664 0.541016 1.397112
  H 0.548150 -0.843208 0.262294
  H 0.550454 0.754050 -0.380848
  H 3.961008 1.377683 1.156218
  H 3.963008 -0.228042 1.800399
  H 2.699433 -0.728439 -1.768131
 12
 52.860368
  C 0.970782 0.151705 0.430375
  C 2.579869 0.081550 0.255087
  C 3.288457 0.576867 1.484296
  H 2.604855 0.887088 2.260861
  C 2.975146 -0.376149 -0.887486
  H 3.868013 -0.138999 -0.289300
  H 0.742249 0.546425 1.409773
  H 0.586791 -0.854026 0.293223
  H 0.589544 0.782697 -0.367274
  H 3.921800 1.427549 1.235897
  H 3.925170 -0.209433 1.893099
  H 2.645269 -0.750327 -1.823887
 12
 61.536340
  C 0.960901 0.157159 0.440122
  C 2.607115 0.079375 0.250909
  C 3.296802 0.575721 1.487772
  H 2.597093 0.883100 2.258121
  C 2.951164 -0.386009 -0.911815
  H 3.804671 -0.123598 -0.246663
  H 0.750166 0.552842 1.422306
  H 0.590793 -0.856860 0.316963
  H 0.596788 0.798648 -0.343379
  H 3.928650 1.442729 1.248664
  H 3.918049 -0.203684 1.906419
  H 2.692762 -0.767249 -1.867003
 12
 69.461194
  C 0.961944 0.157280 0.448005
  C 2.620729 0.078731 0.248192
  C 3.302874 0.581637 1.492322
  H 2.594605 0.884354 2.255899
  C 2.938591 -0.391011 -0.924873
  H 3.748085 -0.102294 -0.199682
  H 0.761048 0.554834 1.430706
  H 0.596863 -0.846552 0.333812
  H 0.592604 0.808130 -0.338793
  H 3.922834 1.440135 1.259228
  H 3.933074 -0.205448 1.922163
  H 2.718067 -0.776445 -1.887901
 12
 75.838765
  C 0.957563 0.163809 0.454678
  C 2.627133 0.077546 0.243241
  C 3.311113 0.583078 1.497413
  H 2.596130 0.885754 2.254287
  C 2.935411 -0.393996 -0.934258
  H 3.711376 -0.082215 -0.147253
  H 0.762661 0.561757 1.438635
  H 0.581221 -0.849439 0.342858
  H 0.587972 0.809573 -0.319650
  H 3.932354 1.442783 1.266103
  H 3.939707 -0.201308 1.928710
  H 2.742596 -0.780195 -1.901468
 12
 81.542928
  C 0.951200 0.165746 0.465924
  C 2.629329 0.073412 0.238955
  C 3.319634 0.583144 1.501749
  H 2.597716 0.882444 2.252821
  C 2.930922 -0.397642 -0.940636
  H 3.688896 -0.062201 -0.092393
  H 0.760409 0.562651 1.450936
  H 0.572555 -0.838521 0.357732
  H 0.572016 0.816623 -0.311838
  H 3.941634 1.448484 1.271928
  H 3.945100 -0.197068 1.934160
  H 2.767061 -0.783936 -1.912810
 12
 86.286540
  C 0.950104 0.170302 0.475729
  C 2.630825 0.072673 0.236057
  C 3.324320 0.585930 1.508244
  H 2.595459 0.882501 2.253115
  C 2.917953 -0.399794 -0.946544
  H 3.671540 -0.043133 -0.044665
  H 0.763802 0.567417 1.461276
  H 0.568738 -0.834209 0.369513
  H 0.569229 0.820528 -0.298810
  H 3.945563 1.452911 1.282120
  H 3.947839 -0.192929 1.944201
  H 2.781402 -0.787097 -1.921682
 12
 90.391024
  C 0.949429 0.174438 0.487190
  C 2.626567 0.072453 0.231830
  C 3.330034 0.588468 1.513402
  H 2.594234 0.883640 2.251921
  C 2.906335 -0.401061 -0.952192
  H 3.658712 -0.023384 0.012019
  H 0.767114 0.571629 1.473346
  H 0.563973 -0.828514 0.382632
  H 0.562980 0.824929 -0.284376
  H 3.950955 1.457196 1.291287
  H 3.950538 -0.189710 1.953925
  H 2.798028 -0.789277 -1.930005
 12
 93.803237
  C 0.950134 0.172806 0.478043
  C 2.623802 0.080325 0.251501
  C 3.357151 0.595774 1.533570
  H 2.618041 0.882694 2.271645
  C 2.870973 -0.395573 -0.945409
  H 3.649151 0.004251 0.069513
  H 0.741518 0.572475 1.459376
  H 0.564815 -0.832142 0.371882
  H 0.565180 0.817966 -0.300054
  H 3.971192 1.468189 1.313384
  H 3.983462 -0.180994 1.970753
  H 2.759469 -0.794529 -1.916337
 12
 97.075668
  C 0.955660 0.175478 0.480319
  C 2.636348 0.080499 0.269209
  C 3.365526 0.596418 1.547710
  H 2.617524 0.873635 2.281199
  C 2.840301 -0.392623 -0.934872
  H 3.649423 0.020713 0.090844
  H 0.743898 0.577358 1.460914
  H 0.573900 -0.829281 0.372746
  H 0.581104 0.819697 -0.300328
  H 3.968093 1.482253 1.335965
  H 3.993064 -0.173666 1.990709
  H 2.731309 -0.790111 -1.906818
 12
 98.988809
  C 0.949316 0.194419 0.494984
  C 2.643996 0.056629 0.270352
  C 3.364317 0.585061 1.558363
  H 2.606927 0.817766 2.299162
  C 2.848418 -0.417700 -0.932786
  H 3.655711 0.108643 0.101860
  H 0.755898 0.612819 1.471208
  H 0.557458 -0.805574 0.400133
  H 0.587134 0.836082 -0.294117
  H 3.927394 1.500515 1.361349
  H 4.025322 -0.165402 1.986371
  H 2.739170 -0.825966 -1.900672
