 9
 0.000000
  C 1.112133 0.033266 0.059263
  C 2.610514 0.047842 0.029427
  C 3.313082 0.537500 -0.973243
  H 4.388754 0.542795 -0.984083
  H 0.751062 -0.416966 0.981207
  H 0.716204 -0.542464 -0.775362
  H 0.716204 1.045479 0.000114
  H 3.114367 -0.372195 0.889523
  H 2.812881 0.956708 -1.831653
 9
 7.444403
  C 1.028092 0.027850 0.070356
  C 2.685375 0.050579 0.023822
  C 3.371623 0.542418 -0.983314
  H 4.447193 0.552418 -1.003790
  H 0.681054 -0.423438 0.994461
  H 0.633203 -0.548309 -0.761153
  H 0.633205 1.037866 0.013461
  H 3.193861 -0.367240 0.879377
  H 2.862664 0.959738 -1.837857
 9
 21.534815
  C 0.938000 0.024323 0.077580
  C 2.754808 0.045347 0.034528
  C 3.387353 0.548233 -0.995228
  H 4.466186 0.568639 -1.036999
  H 0.659788 -0.432565 1.013159
  H 0.626399 -0.557125 -0.775230
  H 0.626403 1.054383 0.011757
  H 3.199934 -0.382226 0.910066
  H 2.870153 0.962416 -1.843334
 9
 41.352375
  C 0.836974 0.026246 0.082008
  C 2.832291 0.058173 0.043773
  C 3.435533 0.543294 -1.004068
  H 4.518381 0.577739 -1.061261
  H 0.598611 -0.430605 1.024426
  H 0.576367 -0.575751 -0.774939
  H 0.562182 1.064513 0.004397
  H 3.260517 -0.379596 0.929717
  H 2.901379 0.947461 -1.847851
 9
 59.030011
  C 0.750749 0.019176 0.093954
  C 2.904935 0.059279 0.038164
  C 3.494762 0.549221 -1.014547
  H 4.576487 0.587874 -1.083718
  H 0.527052 -0.438420 1.038957
  H 0.493322 -0.580683 -0.760830
  H 0.479957 1.055994 0.018563
  H 3.331654 -0.374727 0.917943
  H 2.951248 0.951887 -1.853333
 9
 75.301475
  C 0.663116 0.012440 0.105439
  C 2.976074 0.060707 0.032109
  C 3.549678 0.554842 -1.024882
  H 4.630648 0.599320 -1.108193
  H 0.457640 -0.446469 1.054450
  H 0.413675 -0.586917 -0.750316
  H 0.400693 1.051119 0.031665
  H 3.399965 -0.373298 0.912784
  H 2.995986 0.955860 -1.858143
 9
 89.294003
  C 0.573680 0.005673 0.117817
  C 3.045302 0.062301 0.026237
  C 3.602662 0.560265 -1.034861
  H 4.684064 0.611013 -1.133084
  H 0.388159 -0.453900 1.068975
  H 0.334302 -0.593895 -0.739925
  H 0.322038 1.046225 0.045531
  H 3.465141 -0.371799 0.907392
  H 3.038613 0.959491 -1.862270
 9
 100.817965
  C 0.482604 -0.001173 0.130371
  C 3.112788 0.064171 0.020012
  C 3.654628 0.565726 -1.044953
  H 4.735531 0.622883 -1.158238
  H 0.317051 -0.462068 1.084388
  H 0.254515 -0.600815 -0.729260
  H 0.242694 1.041716 0.059299
  H 3.528812 -0.370635 0.902510
  H 3.080333 0.963081 -1.866434
 9
 109.994193
  C 0.389811 -0.008198 0.143748
  C 3.178438 0.066237 0.013667
  C 3.705701 0.571154 -1.054922
  H 4.786048 0.634702 -1.183356
  H 0.244056 -0.470020 1.099353
  H 0.173147 -0.608008 -0.717860
  H 0.161909 1.036633 0.073812
  H 3.590878 -0.369093 0.896835
  H 3.121202 0.966606 -1.870408
 9
 117.083939
  C 0.295246 -0.015422 0.157593
  C 3.242196 0.068562 0.006919
  C 3.755897 0.576644 -1.065016
  H 4.835093 0.646466 -1.208350
  H 0.168489 -0.478472 1.114996
  H 0.089784 -0.615258 -0.705803
  H 0.078999 1.031411 0.088650
  H 3.651799 -0.367448 0.890872
  H 3.161405 0.970174 -1.874475
 9
 122.407981
  C 0.198709 -0.022902 0.172257
  C 3.303846 0.071088 -0.000086
  C 3.804945 0.582155 -1.075130
  H 4.882679 0.658037 -1.232972
  H 0.090141 -0.486901 1.130600
  H 0.003803 -0.622744 -0.692842
  H -0.006462 1.025551 0.104266
  H 3.711254 -0.365448 0.884164
  H 3.200655 0.973796 -1.878586
 9
 126.297126
  C 0.099857 -0.030681 0.187596
  C 3.363042 0.073825 -0.007450
  C 3.852422 0.587726 -1.085382
  H 4.928337 0.669405 -1.257132
  H 0.008481 -0.495756 1.146897
  H -0.085226 -0.630414 -0.679018
  H -0.095035 1.019331 0.120483
  H 3.769025 -0.363235 0.876973
  H 3.238650 0.977512 -1.882872
 9
 129.058082
  C -0.001849 -0.038824 0.203888
  C 3.419227 0.076719 -0.015037
  C 3.897631 0.593316 -1.095676
  H 4.971485 0.680497 -1.280675
  H -0.076965 -0.504782 1.163587
  H -0.177983 -0.638411 -0.664138
  H -0.187299 1.012442 0.137637
  H 3.824438 -0.360747 0.869206
  H 3.274674 0.981309 -1.887278
 9
 130.927266
  C -0.107380 -0.047439 0.221197
  C 3.471421 0.079729 -0.022800
  C 3.939454 0.598904 -1.105987
  H 5.011040 0.691322 -1.303567
  H -0.167173 -0.514332 1.181266
  H -0.275422 -0.646794 -0.648080
  H -0.284295 1.005014 0.155771
  H 3.876525 -0.358108 0.861103
  H 3.307630 0.985142 -1.891741
