 25
 0.000000
  C 0.963624 0.049780 0.180082
  C 2.465431 0.055970 0.089902
  C 3.272189 -0.016827 1.372483
  C 2.505548 -0.085886 2.691847
  C 3.475177 -0.150428 3.868017
  C 3.081147 0.125764 -1.107907
  C 2.324782 0.202311 -2.402675
  H 1.253741 0.195610 -2.261233
  C 4.532344 0.132179 -1.236083
  C 5.215448 0.198526 -2.374262
  H 6.290282 0.197599 -2.376038
  H 0.617446 -0.018712 1.203524
  H 0.551238 -0.797799 -0.367364
  H 0.549775 0.962262 -0.249305
  H 3.925050 0.860270 1.418850
  H 3.919673 -0.897777 1.322982
  H 1.870843 -0.974261 2.713440
  H 1.873988 0.797472 2.807331
  H 4.110320 -1.030936 3.793636
  H 2.931245 -0.199607 4.808645
  H 4.113640 0.730590 3.887680
  H 2.591043 -0.644700 -3.035474
  H 2.593154 1.116802 -2.932132
  H 5.097920 0.077316 -0.316359
  H 4.750934 0.255848 -3.342754
 25
 5.856677
  C 0.985152 0.002173 0.190369
  C 2.442440 0.043150 0.096507
  C 3.264866 -0.037637 1.365991
  C 2.497663 -0.073823 2.687610
  C 3.466758 -0.148760 3.865944
  C 3.062808 0.119733 -1.098684
  C 2.300843 0.182400 -2.393406
  H 1.234475 0.154344 -2.252453
  C 4.510419 0.156862 -1.222912
  C 5.198997 0.231663 -2.365896
  H 6.276083 0.245525 -2.362273
  H 0.595025 -0.024335 1.185909
  H 0.535868 -0.776151 -0.384311
  H 0.842980 0.971559 -0.271676
  H 3.941449 0.821500 1.401104
  H 3.889045 -0.936325 1.320290
  H 1.842069 -0.946108 2.719261
  H 1.887084 0.825513 2.792781
  H 4.080517 -1.045054 3.800956
  H 2.921989 -0.174670 4.807376
  H 4.126402 0.716704 3.876214
  H 2.579514 -0.658473 -3.026475
  H 2.550961 1.100384 -2.924439
  H 5.073198 0.112485 -0.306437
  H 4.733232 0.278662 -3.339662
 25
 18.152383
  C 0.976648 -0.023075 0.207722
  C 2.427226 0.032926 0.108442
  C 3.262787 -0.050281 1.366557
  C 2.495319 -0.067028 2.690790
  C 3.458500 -0.144644 3.866288
  C 3.057512 0.116530 -1.105046
  C 2.285993 0.172436 -2.403601
  H 1.216887 0.133794 -2.264630
  C 4.506786 0.172748 -1.227776
  C 5.196780 0.255120 -2.364850
  H 6.271174 0.282145 -2.355866
  H 0.557121 -0.004091 1.204922
  H 0.488403 -0.774211 -0.407989
  H 1.063731 0.937001 -0.253240
  H 3.953084 0.796440 1.395184
  H 3.868832 -0.960322 1.320536
  H 1.829879 -0.928903 2.727173
  H 1.896502 0.838743 2.787037
  H 4.060870 -1.048758 3.807906
  H 2.912630 -0.156989 4.806915
  H 4.128511 0.712703 3.870631
  H 2.570850 -0.663625 -3.036261
  H 2.525975 1.089962 -2.935377
  H 5.070683 0.134234 -0.310366
  H 4.738263 0.294057 -3.335608
 25
 31.696901
  C 0.955769 -0.052585 0.218896
  C 2.414683 0.027474 0.106733
  C 3.250698 -0.052308 1.371763
  C 2.490707 -0.061083 2.688340
  C 3.459227 -0.133696 3.861987
  C 3.058760 0.112266 -1.110828
  C 2.293217 0.165782 -2.410093
  H 1.214116 0.134071 -2.270620
  C 4.499424 0.175802 -1.228980
  C 5.186511 0.264367 -2.367463
  H 6.261491 0.298673 -2.361444
  H 0.535396 -0.067646 1.206671
  H 0.439726 -0.713537 -0.462741
  H 1.231225 0.918645 -0.162237
  H 3.945821 0.787574 1.399458
  H 3.845650 -0.963810 1.325504
  H 1.823011 -0.925403 2.731286
  H 1.891053 0.849006 2.781903
  H 4.061780 -1.039857 3.805805
  H 2.915994 -0.141243 4.805081
  H 4.131059 0.724527 3.860238
  H 2.576321 -0.676531 -3.042616
  H 2.539236 1.082586 -2.945982
  H 5.067067 0.137120 -0.308029
  H 4.723579 0.304535 -3.337682
 25
 43.141711
  C 0.941029 -0.087057 0.224455
  C 2.403625 0.021506 0.097001
  C 3.239274 -0.051046 1.365631
  C 2.482417 -0.057501 2.692562
  C 3.462236 -0.116795 3.866175
  C 3.055364 0.108425 -1.123005
  C 2.290829 0.169938 -2.419939
  H 1.217471 0.154287 -2.277871
  C 4.494955 0.170740 -1.233580
  C 5.189613 0.264861 -2.368490
  H 6.264120 0.296542 -2.355589
  H 0.524022 -0.158129 1.214181
  H 0.401830 -0.644597 -0.519617
  H 1.358100 0.898073 -0.063571
  H 3.934401 0.791332 1.388650
  H 3.834456 -0.965122 1.315860
  H 1.820036 -0.927987 2.745868
  H 1.875419 0.849957 2.784920
  H 4.071217 -1.018893 3.811663
  H 2.924516 -0.123285 4.812818
  H 4.128153 0.746169 3.856664
  H 2.560736 -0.675645 -3.055375
  H 2.547135 1.084982 -2.957259
  H 5.059397 0.124339 -0.309156
  H 4.731925 0.311423 -3.341383
 25
 51.052333
  C 0.932510 -0.122253 0.232323
  C 2.400691 0.011713 0.093685
  C 3.233822 -0.054109 1.366085
  C 2.477942 -0.060760 2.695533
  C 3.459136 -0.091736 3.865793
  C 3.056745 0.104807 -1.132571
  C 2.289382 0.182129 -2.429243
  H 1.217503 0.191968 -2.283167
  C 4.491062 0.159627 -1.238538
  C 5.192271 0.260073 -2.371321
  H 6.268032 0.284837 -2.353153
  H 0.521180 -0.265709 1.211298
  H 0.365268 -0.556337 -0.570851
  H 1.464764 0.874553 0.049081
  H 3.924086 0.791187 1.385465
  H 3.835620 -0.963941 1.317421
  H 1.832513 -0.940334 2.760079
  H 1.856300 0.834355 2.781123
  H 4.082242 -0.980917 3.818309
  H 2.924774 -0.099252 4.810856
  H 4.107934 0.780551 3.847394
  H 2.537479 -0.670053 -3.068943
  H 2.563409 1.093981 -2.968274
  H 5.051019 0.100675 -0.317147
  H 4.737399 0.318721 -3.347256
 25
 57.497480
  C 0.932368 -0.149730 0.229657
  C 2.397266 0.012188 0.086667
  C 3.228192 -0.054100 1.362161
  C 2.471978 -0.059391 2.688616
  C 3.456102 -0.078048 3.868651
  C 3.054371 0.106306 -1.133726
  C 2.292878 0.191687 -2.418972
  H 1.212421 0.216087 -2.269132
  C 4.487842 0.155915 -1.244293
  C 5.188296 0.257251 -2.377159
  H 6.275709 0.278617 -2.359920
  H 0.525298 -0.313764 1.201580
  H 0.351932 -0.522999 -0.597702
  H 1.547982 0.854052 0.090348
  H 3.911198 0.784930 1.380696
  H 3.829074 -0.958580 1.315347
  H 1.834712 -0.937932 2.755152
  H 1.847459 0.824875 2.766735
  H 4.092280 -0.972172 3.827297
  H 2.915845 -0.085053 4.819706
  H 4.106389 0.808071 3.848744
  H 2.524651 -0.651839 -3.050560
  H 2.573912 1.089394 -2.953732
  H 5.046153 0.092290 -0.333015
  H 4.736149 0.321794 -3.342388
 25
 61.731103
  C 0.925216 -0.187170 0.236741
  C 2.390486 0.020281 0.096468
  C 3.229132 -0.054930 1.365993
  C 2.474570 -0.065993 2.696461
  C 3.457592 -0.064526 3.867737
  C 3.058549 0.111574 -1.143878
  C 2.290998 0.201920 -2.436489
  H 1.216334 0.252971 -2.286567
  C 4.485485 0.159806 -1.243604
  C 5.194975 0.252184 -2.375951
  H 6.274456 0.264544 -2.352675
  H 0.508268 -0.375343 1.200113
  H 0.330830 -0.461534 -0.611308
  H 1.599095 0.849774 0.153406
  H 3.913162 0.792607 1.384148
  H 3.832931 -0.960727 1.312892
  H 1.849881 -0.957523 2.769188
  H 1.832843 0.814187 2.773817
  H 4.103822 -0.943135 3.826713
  H 2.922114 -0.077104 4.816317
  H 4.088787 0.826639 3.842027
  H 2.503524 -0.658111 -3.064393
  H 2.592357 1.091837 -2.984407
  H 5.042225 0.097640 -0.324177
  H 4.747709 0.310185 -3.345479
 25
 65.374820
  C 0.930719 -0.227901 0.237490
  C 2.390398 0.030372 0.103109
  C 3.233680 -0.056357 1.370445
  C 2.475025 -0.067166 2.697552
  C 3.449326 -0.055125 3.868009
  C 3.062185 0.116545 -1.145813
  C 2.289072 0.212905 -2.435550
  H 1.217317 0.290707 -2.280650
  C 4.487026 0.163180 -1.246509
  C 5.195596 0.247809 -2.381577
  H 6.273157 0.261249 -2.359388
  H 0.504488 -0.407846 1.195580
  H 0.329404 -0.443536 -0.620169
  H 1.650616 0.855768 0.179176
  H 3.923983 0.793957 1.390710
  H 3.836630 -0.966814 1.314865
  H 1.854878 -0.961818 2.770650
  H 1.827272 0.808536 2.769068
  H 4.100790 -0.928596 3.831893
  H 2.910322 -0.068516 4.813251
  H 4.073419 0.839467 3.841603
  H 2.477129 -0.656287 -3.056131
  H 2.606873 1.088236 -2.993167
  H 5.049620 0.106452 -0.323384
  H 4.744414 0.300520 -3.354924
 25
 68.004152
  C 0.940449 -0.275543 0.231492
  C 2.388808 0.042023 0.108305
  C 3.236705 -0.055749 1.375968
  C 2.473818 -0.064452 2.704156
  C 3.445090 -0.047673 3.878266
  C 3.066183 0.123559 -1.150852
  C 2.287584 0.227083 -2.435335
  H 1.218822 0.334290 -2.272550
  C 4.488669 0.168109 -1.252387
  C 5.197249 0.244526 -2.390334
  H 6.270372 0.255525 -2.369312
  H 0.497214 -0.428271 1.190098
  H 0.340660 -0.454493 -0.632640
  H 1.691235 0.871616 0.185327
  H 3.929623 0.790468 1.397517
  H 3.834417 -0.969921 1.318116
  H 1.853964 -0.961742 2.777737
  H 1.824715 0.809298 2.771548
  H 4.097827 -0.917922 3.845439
  H 2.904469 -0.060677 4.820170
  H 4.065977 0.846784 3.851995
  H 2.448764 -0.656636 -3.051383
  H 2.624628 1.090439 -3.005119
  H 5.050890 0.115712 -0.333360
  H 4.744489 0.291949 -3.363360
 25
 70.033901
  C 0.947090 -0.314915 0.225577
  C 2.385226 0.047942 0.112280
  C 3.235589 -0.055732 1.375208
  C 2.476203 -0.059853 2.698906
  C 3.450063 -0.041080 3.878928
  C 3.063271 0.126888 -1.148805
  C 2.282023 0.238625 -2.432613
  H 1.222588 0.367193 -2.266770
  C 4.482012 0.166954 -1.248275
  C 5.192325 0.241896 -2.384747
  H 6.273770 0.253372 -2.361788
  H 0.495825 -0.445313 1.179931
  H 0.348915 -0.474898 -0.647871
  H 1.728976 0.881414 0.185751
  H 3.933086 0.788177 1.394480
  H 3.827697 -0.971069 1.316015
  H 1.865093 -0.942979 2.773259
  H 1.824166 0.818771 2.763464
  H 4.101624 -0.909565 3.848380
  H 2.901465 -0.051813 4.833813
  H 4.068097 0.847993 3.850908
  H 2.421678 -0.648897 -3.042151
  H 2.635957 1.097928 -3.013467
  H 5.046628 0.113783 -0.321765
  H 4.742172 0.292573 -3.354785
 25
 69.386766
  C 0.971811 -0.393711 0.210689
  C 2.382582 0.059091 0.119596
  C 3.238245 -0.054518 1.384532
  C 2.473311 -0.052526 2.713292
  C 3.442684 -0.027675 3.892174
  C 3.073222 0.135704 -1.155833
  C 2.278352 0.265988 -2.427943
  H 1.224482 0.444949 -2.242443
  C 4.487444 0.163457 -1.256710
  C 5.197850 0.237077 -2.398984
  H 6.271770 0.239866 -2.378448
  H 0.486365 -0.466746 1.159101
  H 0.381676 -0.531473 -0.667113
  H 1.764183 0.927189 0.179847
  H 3.939345 0.783629 1.402829
  H 3.823312 -0.973340 1.324517
  H 1.856086 -0.943148 2.791117
  H 1.822716 0.824395 2.771596
  H 4.095970 -0.898174 3.867153
  H 2.897907 -0.034731 4.835468
  H 4.060582 0.863345 3.862165
  H 2.366266 -0.636485 -3.029647
  H 2.657865 1.095860 -3.021962
  H 5.052976 0.103224 -0.336861
  H 4.742829 0.298011 -3.370802
 25
 68.219334
  C 0.994633 -0.464524 0.199885
  C 2.377257 0.066079 0.127802
  C 3.235954 -0.054843 1.389201
  C 2.472093 -0.040298 2.718954
  C 3.440353 -0.013384 3.895867
  C 3.079733 0.141894 -1.159544
  C 2.274658 0.289975 -2.421341
  H 1.227135 0.514004 -2.216934
  C 4.485433 0.155783 -1.258311
  C 5.199696 0.234661 -2.401159
  H 6.267319 0.238075 -2.377925
  H 0.478740 -0.482183 1.139002
  H 0.415722 -0.596218 -0.688690
  H 1.805137 0.970455 0.176946
  H 3.944518 0.777757 1.402535
  H 3.809614 -0.980882 1.329624
  H 1.844310 -0.932027 2.802715
  H 1.830017 0.836930 2.770408
  H 4.090162 -0.890028 3.875368
  H 2.896331 -0.011853 4.838137
  H 4.066107 0.877210 3.859676
  H 2.314946 -0.626386 -3.016599
  H 2.676092 1.094737 -3.028736
  H 5.046566 0.090087 -0.342629
  H 4.745677 0.318303 -3.373180
 25
 66.885871
  C 1.020724 -0.535102 0.191598
  C 2.366662 0.082018 0.133745
  C 3.232718 -0.044188 1.389025
  C 2.474089 -0.028701 2.714941
  C 3.443184 -0.001168 3.891394
  C 3.075943 0.163034 -1.158631
  C 2.264329 0.323160 -2.409616
  H 1.233445 0.596195 -2.191693
  C 4.479345 0.159913 -1.253663
  C 5.199800 0.233607 -2.393309
  H 6.272772 0.215029 -2.365611
  H 0.470557 -0.502054 1.112038
  H 0.458335 -0.681182 -0.709468
  H 1.829974 1.005983 0.175610
  H 3.942879 0.788344 1.400117
  H 3.803543 -0.972023 1.325745
  H 1.849722 -0.915258 2.798283
  H 1.829080 0.851196 2.765300
  H 4.091302 -0.873827 3.870321
  H 2.899389 -0.000080 4.834812
  H 4.069165 0.891163 3.854615
  H 2.253041 -0.604244 -2.985000
  H 2.693340 1.099050 -3.041419
  H 5.038752 0.070547 -0.332859
  H 4.751461 0.311263 -3.365588
