 10
 0.000000
  H 3.428065 -0.476791 -1.113493
  C 4.498031 -0.436900 -1.049658
  C 5.215283 -0.855261 -2.085867
  C 4.632741 -1.369895 -3.364927
  H 3.550000 -1.352292 -3.325597
  O 6.577978 -0.865853 -2.109688
  H 4.964948 -0.075693 -0.149965
  H 4.983313 -2.384936 -3.543850
  H 4.985537 -0.762959 -4.197016
  H 6.907063 -0.534254 -1.268292
 10
 0.400031
  H 3.424577 -0.382650 -1.052637
  C 4.493023 -0.471112 -1.051600
  C 5.202257 -0.885738 -2.090922
  C 4.636529 -1.382233 -3.382018
  H 3.550200 -1.365546 -3.355943
  O 6.568782 -0.894822 -2.077472
  H 4.980975 -0.147925 -0.144104
  H 4.981149 -2.398502 -3.562301
  H 4.991723 -0.763920 -4.200683
  H 6.875011 -0.424306 -1.292508
 10
 3.555446
  H 3.451996 -0.274733 -1.019753
  C 4.513380 -0.431257 -1.067935
  C 5.197667 -0.889511 -2.106165
  C 4.636483 -1.395464 -3.390768
  H 3.553008 -1.383426 -3.362357
  O 6.569043 -0.881394 -2.064046
  H 4.997914 -0.350852 -0.104033
  H 4.986731 -2.416392 -3.545572
  H 4.989370 -0.793802 -4.228909
  H 6.800931 -0.320977 -1.310234
 10
 14.650299
  H 3.535857 -0.148904 -1.002368
  C 4.574228 -0.403211 -1.054621
  C 5.203747 -0.839746 -2.148734
  C 4.630680 -1.404107 -3.402899
  H 3.545444 -1.368395 -3.374357
  O 6.579438 -0.795374 -2.077911
  H 4.987509 -0.614286 -0.084117
  H 4.965358 -2.437752 -3.482417
  H 4.992823 -0.871593 -4.288958
  H 6.641388 -0.231955 -1.289937
 10
 34.342247
  H 3.613838 -0.006927 -0.995392
  C 4.648413 -0.330198 -1.085589
  C 5.227277 -0.879229 -2.165869
  C 4.630850 -1.425746 -3.408847
  H 3.551356 -1.481079 -3.313767
  O 6.596293 -0.776296 -2.039730
  H 4.958651 -0.738411 -0.133736
  H 5.023762 -2.434794 -3.567888
  H 4.893666 -0.823920 -4.280026
  H 6.452697 -0.211021 -1.214822
 10
 58.269575
  H 3.695770 0.003642 -1.037266
  C 4.723691 -0.335832 -1.055456
  C 5.292117 -0.888216 -2.207238
  C 4.629108 -1.447334 -3.413076
  H 3.549862 -1.457841 -3.294477
  O 6.577929 -0.776218 -2.137467
  H 4.997081 -0.822167 -0.124994
  H 4.990356 -2.462416 -3.571853
  H 4.898982 -0.867285 -4.294892
  H 6.170139 -0.052044 -1.063346
 10
 29.196439
  H 3.778358 0.033221 -1.060587
  C 4.783580 -0.321634 -1.006011
  C 5.394402 -0.933509 -2.251335
  C 4.631301 -1.450566 -3.430538
  H 3.559086 -1.435160 -3.249258
  O 6.602811 -0.803350 -2.265706
  H 5.010130 -0.886582 -0.094739
  H 4.917623 -2.498022 -3.589533
  H 4.909501 -0.905923 -4.329115
  H 5.852771 0.099927 -0.921297
 10
 4.355860
  H 3.814633 0.046842 -1.127327
  C 4.835263 -0.295315 -1.059987
  C 5.460986 -0.927819 -2.273410
  C 4.624928 -1.489572 -3.381953
  H 3.571512 -1.386037 -3.163879
  O 6.672443 -0.902937 -2.300652
  H 4.910573 -0.993509 -0.222376
  H 4.889732 -2.516104 -3.569422
  H 4.815460 -0.908391 -4.284748
  H 5.745693 0.272694 -0.802212
 10
 -6.702397
  H 3.872517 0.061092 -1.218444
  C 4.865237 -0.329024 -1.050716
  C 5.503097 -0.952384 -2.266042
  C 4.601344 -1.461437 -3.361021
  H 3.551185 -1.339923 -3.116279
  O 6.705491 -0.951830 -2.360645
  H 4.853035 -1.052416 -0.233235
  H 4.814077 -2.514436 -3.539959
  H 4.831923 -0.928126 -4.280980
  H 5.625616 0.383970 -0.739170
 10
 -8.547610
  H 3.830241 -0.149239 -1.177625
  C 4.883725 -0.360467 -1.042305
  C 5.535288 -0.932998 -2.277882
  C 4.609295 -1.419259 -3.367367
  H 3.577290 -1.128897 -3.202517
  O 6.734067 -1.022326 -2.376476
  H 5.006070 -1.070011 -0.225606
  H 4.673259 -2.504837 -3.415562
  H 4.954024 -1.037097 -4.326729
  H 5.420261 0.540616 -0.754421
 10
 -8.785126
  H 3.848854 -0.100951 -1.197679
  C 4.890199 -0.362076 -1.042762
  C 5.543130 -0.897976 -2.294513
  C 4.610637 -1.426203 -3.360779
  H 3.582542 -1.112749 -3.208862
  O 6.740474 -0.936532 -2.422549
  H 4.950066 -1.132791 -0.274685
  H 4.656888 -2.514728 -3.345558
  H 4.958589 -1.103032 -4.338902
  H 5.442142 0.502525 -0.680203
