 23
 0.000000
  H 1.383975 0.137746 0.394054
  C 2.453972 0.138831 0.396445
  C 3.235887 0.609601 1.567949
  C 2.454651 1.098519 2.785050
  H 3.117958 1.411577 3.564099
  C 3.074760 -0.323868 -0.755623
  C 4.452396 -0.411652 -0.974602
  C 5.123831 -0.863395 -2.100714
  C 4.621920 -1.386396 -3.404454
  C 3.129954 -1.502980 -3.695876
  H 2.969462 -1.896832 -4.677723
  O 6.448567 -0.861790 -2.097024
  H 3.892013 1.422462 1.236076
  H 3.892206 -0.206765 1.890660
  H 1.816409 0.300727 3.170305
  H 1.816264 1.941012 2.511316
  H 2.419633 -0.642347 -1.548686
  H 5.073532 -0.080521 -0.149771
  H 5.075895 -2.376004 -3.531813
  H 5.076265 -0.759449 -4.180462
  H 2.655656 -0.522022 -3.641480
  H 2.655252 -2.174151 -2.978669
  H 6.820588 -0.526463 -1.260938
 23
 0.000000
  H 1.436069 0.126172 0.365234
  C 2.505990 0.131167 0.377351
  C 3.275498 0.604769 1.555909
  C 2.481449 1.090805 2.765852
  H 3.136499 1.406270 3.550894
  C 3.138911 -0.329238 -0.769020
  C 4.455830 -0.426783 -1.012357
  C 5.072148 -0.852215 -2.072881
  C 4.606058 -1.379799 -3.388027
  C 3.122537 -1.510459 -3.714504
  H 2.988952 -1.905705 -4.699817
  O 6.298437 -0.822555 -1.999258
  H 3.931639 1.420029 1.230003
  H 3.931835 -0.209200 1.884583
  H 1.842650 0.290679 3.145300
  H 1.842502 1.930965 2.486314
  H 2.492188 -0.650095 -1.568001
  H 5.093598 -0.100060 -0.198532
  H 5.072249 -2.365055 -3.504545
  H 5.072609 -0.748499 -4.153189
  H 2.637830 -0.534036 -3.671407
  H 2.637439 -2.186167 -3.008601
  H 6.588130 -0.455150 -1.083182
 23
 0.000000
  H 1.486320 0.115067 0.337565
  C 2.556045 0.124227 0.360052
  C 3.312245 0.600794 1.546006
  C 2.504620 1.083707 2.748189
  H 3.150797 1.401702 3.539540
  C 3.201836 -0.333683 -0.780125
  C 4.466262 -0.441071 -1.048002
  C 5.028821 -0.842609 -2.048969
  C 4.593766 -1.373862 -3.373242
  C 3.118269 -1.516557 -3.729685
  H 3.007885 -1.912798 -4.717470
  O 6.154924 -0.791022 -1.920687
  H 3.968335 1.418610 1.226462
  H 3.968531 -0.210620 1.881038
  H 1.865294 0.281090 3.121440
  H 1.865145 1.921379 2.462460
  H 2.564141 -0.657041 -1.585331
  H 5.122193 -0.119366 -0.246708
  H 5.070219 -2.355285 -3.480213
  H 5.070568 -0.738727 -4.128853
  H 2.624863 -0.544113 -3.696495
  H 2.624486 -2.196246 -3.033694
  H 6.348876 -0.391037 -0.923373
 23
 0.000000
  H 1.534127 0.104577 0.311423
  C 2.603515 0.118190 0.344996
  C 3.345391 0.597869 1.538717
  C 2.523344 1.077383 2.732458
  H 3.159955 1.398044 3.530459
  C 3.262990 -0.336998 -0.788419
  C 4.485011 -0.454166 -1.080678
  C 4.995860 -0.834884 -2.029741
  C 4.585388 -1.368850 -3.360757
  C 3.116706 -1.520976 -3.740675
  H 3.024627 -1.917868 -4.730075
  O 6.020819 -0.767678 -1.862522
  H 4.001348 1.418417 1.225979
  H 4.001541 -0.210816 1.880547
  H 1.883530 0.272102 3.099074
  H 1.883384 1.912394 2.440102
  H 2.635027 -0.662988 -1.600186
  H 5.160308 -0.138062 -0.293360
  H 5.069764 -2.347196 -3.460064
  H 5.070101 -0.730637 -4.108703
  H 2.616614 -0.551713 -3.715409
  H 2.616250 -2.203846 -3.052609
  H 6.104199 -0.335685 -0.785393
 23
 0.000000
  H 1.578655 0.094996 0.287535
  C 2.647539 0.113332 0.332873
  C 3.374110 0.596247 1.534677
  C 2.536866 1.072089 2.719292
  H 3.163236 1.395535 3.524245
  C 3.321451 -0.338904 -0.793209
  C 4.512935 -0.465532 -1.109042
  C 4.975303 -0.829466 -2.016262
  C 4.581366 -1.365163 -3.351572
  C 3.117491 -1.523584 -3.747152
  H 3.037689 -1.920849 -4.737468
  O 5.898620 -0.753004 -1.825957
  H 4.029837 1.419695 1.229161
  H 4.030025 -0.209542 1.883722
  H 1.896620 0.263978 3.078861
  H 1.896479 1.904274 2.419897
  H 2.703904 -0.667643 -1.611830
  H 5.208177 -0.155477 -0.336820
  H 5.070970 -2.341420 -3.445674
  H 5.071297 -0.724862 -4.094316
  H 2.613002 -0.556476 -3.727254
  H 2.612650 -2.208609 -3.064452
  H 5.856409 -0.290736 -0.673334
 23
 0.000000
  H 1.618887 0.086738 0.266937
  C 2.687084 0.109999 0.324550
  C 3.397568 0.596219 1.534612
  C 2.544587 1.068158 2.709523
  H 3.160172 1.394462 3.521611
  C 3.375965 -0.339088 -0.793709
  C 4.550061 -0.474253 -1.130815
  C 4.968994 -0.826957 -2.010029
  C 4.582127 -1.363376 -3.347115
  C 3.120361 -1.524479 -3.749358
  H 3.045799 -1.921890 -4.740024
  O 5.790514 -0.747498 -1.812234
  H 4.052960 1.422691 1.236632
  H 4.053139 -0.206549 1.891184
  H 1.903985 0.257093 3.061730
  H 1.903852 1.897392 2.402775
  H 2.769384 -0.670647 -1.619362
  H 5.264773 -0.170396 -0.374055
  H 5.073942 -2.338733 -3.438977
  H 5.074262 -0.722178 -4.087625
  H 2.614016 -0.558298 -3.731767
  H 2.613671 -2.210428 -3.068959
  H 5.609167 -0.257680 -0.590917
 23
 0.000000
  H 1.651964 0.080637 0.251711
  C 2.719345 0.108644 0.321155
  C 3.414212 0.597980 1.539006
  C 2.546177 1.066089 2.704386
  H 3.151271 1.395100 3.523238
  C 3.422561 -0.337344 -0.789395
  C 4.592738 -0.478625 -1.141741
  C 4.977733 -0.828201 -2.013145
  C 4.587644 -1.364303 -3.349422
  C 3.124913 -1.524195 -3.748627
  H 3.047964 -1.921548 -4.739135
  O 5.703573 -0.751382 -1.821908
  H 4.069185 1.427366 1.248288
  H 4.069353 -0.201877 1.902834
  H 1.905322 0.252174 3.049489
  H 1.905200 1.892476 2.390542
  H 2.826644 -0.671573 -1.621712
  H 5.323989 -0.180274 -0.398713
  H 5.078458 -2.340069 -3.442300
  H 5.078772 -0.723517 -4.090956
  H 2.619407 -0.557594 -3.729990
  H 2.619068 -2.209721 -3.067174
  H 5.381244 -0.238154 -0.542221
 23
 0.000000
  H 1.675288 0.077279 0.243325
  C 2.741857 0.109299 0.322775
  C 3.423427 0.601220 1.547083
  C 2.542746 1.066035 2.704265
  H 3.138892 1.397303 3.528752
  C 3.457131 -0.334018 -0.781125
  C 4.632783 -0.477586 -1.139168
  C 4.997398 -0.833268 -2.025783
  C 4.596136 -1.368231 -3.359205
  C 3.130108 -1.523890 -3.747851
  H 3.044870 -1.921013 -4.737772
  O 5.645119 -0.762365 -1.849269
  H 4.077975 1.433068 1.262510
  H 4.078132 -0.196176 1.917051
  H 1.901748 0.249709 3.043354
  H 1.901637 1.890013 2.384412
  H 2.870307 -0.670469 -1.618988
  H 5.375125 -0.183058 -0.405672
  H 5.083444 -2.345411 -3.455607
  H 5.083754 -0.728862 -4.104270
  H 2.627545 -0.555832 -3.725582
  H 2.627210 -2.207956 -3.062758
  H 5.200400 -0.230104 -0.522134
 23
 0.000000
  H 1.691362 0.076192 0.240598
  C 2.757135 0.111715 0.328790
  C 3.427024 0.605854 1.558640
  C 2.535363 1.067757 2.708558
  H 3.123638 1.400969 3.537902
  C 3.482888 -0.329233 -0.769205
  C 4.667886 -0.471513 -1.124036
  C 5.023590 -0.841975 -2.047489
  C 4.605772 -1.375183 -3.376526
  C 3.135007 -1.524534 -3.749442
  H 3.037465 -1.921267 -4.738386
  O 5.609972 -0.778212 -1.888752
  H 4.081146 1.439854 1.279433
  H 4.081291 -0.189391 1.933972
  H 1.894292 0.249323 3.042390
  H 1.894192 1.889627 2.383450
  H 2.904061 -0.667599 -1.611848
  H 5.416650 -0.179248 -0.396184
  H 5.087818 -2.354445 -3.478118
  H 5.088125 -0.737899 -4.126789
  H 2.636875 -0.554326 -3.721815
  H 2.636542 -2.206447 -3.058984
  H 5.060742 -0.227512 -0.515650
 23
 0.000000
  H 1.701681 0.077544 0.243954
  C 2.766617 0.116400 0.340463
  C 3.425336 0.612618 1.575500
  C 2.523283 1.071714 2.718418
  H 3.104021 1.406755 3.552326
  C 3.502297 -0.322262 -0.751828
  C 4.698456 -0.460239 -1.095932
  C 5.055676 -0.855567 -2.081365
  C 4.615811 -1.386314 -3.404264
  C 3.139018 -1.527200 -3.756074
  H 3.025046 -1.923327 -4.743505
  O 5.597035 -0.799329 -1.941370
  H 4.079007 1.448663 1.301399
  H 4.079138 -0.180581 1.955938
  H 1.882188 0.251275 3.047245
  H 1.882102 1.891579 2.388305
  H 2.931127 -0.662427 -1.598960
  H 5.450079 -0.168995 -0.370620
  H 5.090720 -2.368327 -3.512708
  H 5.091025 -0.751783 -4.161385
  H 2.646913 -0.554146 -3.721357
  H 2.646580 -2.206264 -3.058518
  H 4.955821 -0.225603 -0.510866
 23
 0.000000
  H 1.705286 0.082723 0.256843
  C 2.769283 0.124998 0.361889
  C 3.416480 0.623315 1.602163
  C 2.503819 1.079498 2.737803
  H 3.076772 1.416393 3.576337
  C 3.515105 -0.311285 -0.724461
  C 4.725262 -0.442864 -1.052610
  C 5.095858 -0.877290 -2.135502
  C 4.626075 -1.404473 -3.449514
  C 3.141627 -1.533748 -3.772388
  H 3.005277 -1.928896 -4.757374
  O 5.613440 -0.828705 -2.014569
  H 4.069639 1.461458 1.333301
  H 4.069754 -0.167785 1.987843
  H 1.862747 0.257000 3.061490
  H 1.862676 1.897303 2.402547
  H 2.951843 -0.653274 -1.576142
  H 5.477158 -0.151720 -0.327541
  H 5.091061 -2.390171 -3.567143
  H 5.091364 -0.773630 -4.215827
  H 2.657938 -0.556868 -3.728135
  H 2.657605 -2.208983 -3.065288
  H 4.889630 -0.219378 -0.495320
 23
 0.000000
  H 1.700173 0.092378 0.280882
  C 2.763206 0.137894 0.394024
  C 3.399421 0.638168 1.639183
  C 2.476756 1.091557 2.767836
  H 3.042279 1.430188 3.610704
  C 3.518603 -0.296105 -0.686611
  C 4.744723 -0.421688 -0.999802
  C 5.139236 -0.906200 -2.207541
  C 4.634694 -1.428911 -3.510410
  C 3.142120 -1.544519 -3.799227
  H 2.979650 -1.938296 -4.780797
  O 5.662118 -0.864530 -2.103844
  H 4.052051 1.478301 1.375290
  H 4.052148 -0.150941 2.029836
  H 1.835746 0.267106 3.086644
  H 1.835694 1.907408 2.427698
  H 2.962885 -0.639799 -1.542551
  H 5.495645 -0.130198 -0.273864
  H 5.087800 -2.418825 -3.638543
  H 5.088104 -0.802287 -4.287235
  H 2.668558 -0.563244 -3.744022
  H 2.668221 -2.215355 -3.081167
  H 4.874578 -0.205073 -0.459630
 23
 0.000000
  H 1.691273 0.103553 0.308712
  C 2.753281 0.152277 0.429869
  C 3.378572 0.654459 1.679784
  C 2.446055 1.105050 2.801440
  H 3.004179 1.445379 3.648545
  C 3.518114 -0.279428 -0.645032
  C 4.756877 -0.399653 -0.944852
  C 5.176996 -0.934910 -2.279080
  C 4.639490 -1.453045 -3.570548
  C 3.139992 -1.555511 -3.826622
  H 2.952627 -1.947752 -4.804366
  O 5.718883 -0.899498 -2.190984
  H 4.030634 1.496561 1.420809
  H 4.030714 -0.132679 2.075360
  H 1.805151 0.278664 3.115416
  H 1.805116 1.918964 2.456466
  H 2.969908 -0.624791 -1.505135
  H 5.506460 -0.107690 -0.217721
  H 5.080972 -2.446889 -3.708473
  H 5.081279 -0.830353 -4.357171
  H 2.676387 -0.570119 -3.761160
  H 2.676045 -2.222228 -3.098298
  H 4.877736 -0.186704 -0.413816
 23
 0.000000
  H 1.680481 0.115486 0.338431
  C 2.741300 0.167680 0.468252
  C 3.354722 0.671889 1.723223
  C 2.411611 1.119416 2.837223
  H 2.961686 1.461559 3.688851
  C 3.516290 -0.261511 -0.600363
  C 4.764341 -0.376076 -0.886056
  C 5.208950 -0.961762 -2.345990
  C 4.640100 -1.475237 -3.625846
  C 3.134742 -1.565041 -3.850373
  H 2.923592 -1.955604 -4.823936
  O 5.774229 -0.932668 -2.273640
  H 4.006120 1.516121 1.469568
  H 4.006182 -0.113118 2.124121
  H 1.770870 0.290936 3.145968
  H 1.770852 1.931235 2.487015
  H 2.976255 -0.608654 -1.464908
  H 5.512194 -0.083501 -0.157391
  H 5.070199 -2.472754 -3.772922
  H 5.070509 -0.856221 -4.421627
  H 2.680933 -0.575783 -3.775278
  H 2.680585 -2.227888 -3.112409
  H 4.877606 -0.166419 -0.363226
