 20
 0.000000
  C 1.007570 -0.072359 0.046007
  C 2.503922 -0.081801 0.027473
  C 3.220347 -0.594323 -0.978697
  C 4.657674 -0.605467 -1.000573
  C 5.377319 -1.120880 -2.012414
  C 6.815795 -1.130675 -2.031639
  C 7.533961 -1.642561 -3.036566
  C 9.023953 -1.661993 -3.074705
  H 0.643511 0.393606 0.960771
  H 0.612929 -1.087520 0.007204
  H 0.612931 0.493126 -0.797958
  H 3.002184 0.354120 0.883261
  H 2.709173 -1.027791 -1.829658
  H 5.162859 -0.170724 -0.147103
  H 4.873434 -1.555976 -2.866581
  H 7.322639 -0.696227 -1.178746
  H 7.035066 -2.078803 -3.892964
  H 9.457949 -1.208850 -2.185115
  H 9.383092 -1.116082 -3.948533
  H 9.383094 -2.689800 -3.146914
 20
 0.225643
  C 1.018683 -0.136232 0.092635
  C 2.512444 -0.118575 0.053935
  C 3.234064 -0.444099 -1.021680
  C 4.671075 -0.466030 -1.046904
  C 5.392561 -1.039132 -2.025196
  C 6.827367 -1.082343 -2.041429
  C 7.544139 -1.665115 -3.004611
  C 9.033924 -1.718901 -3.037130
  H 0.644653 0.250119 1.036258
  H 0.642440 -1.154385 -0.031453
  H 0.603771 0.464547 -0.715226
  H 3.022591 0.161212 0.970073
  H 2.729536 -0.742337 -1.934755
  H 5.178092 -0.006863 -0.209315
  H 4.881010 -1.520354 -2.849489
  H 7.333676 -0.604819 -1.210280
  H 7.039346 -2.140101 -3.833058
  H 9.463865 -1.220636 -2.167422
  H 9.408369 -1.238255 -3.938730
  H 9.374797 -2.756553 -3.054123
 20
 1.014737
  C 1.013529 -0.197835 0.087240
  C 2.508924 -0.181993 0.047445
  C 3.227660 -0.329999 -1.066070
  C 4.668445 -0.375001 -1.088925
  C 5.381567 -0.982656 -2.050982
  C 6.816110 -1.056403 -2.061413
  C 7.524456 -1.686138 -3.001123
  C 9.010309 -1.772635 -3.026429
  H 0.644034 0.151666 1.047488
  H 0.640267 -1.212035 -0.071145
  H 0.598403 0.431304 -0.700097
  H 3.018021 -0.087776 0.998846
  H 2.723061 -0.462986 -2.016083
  H 5.182002 0.088243 -0.256266
  H 4.864270 -1.482447 -2.860882
  H 7.329653 -0.561451 -1.244850
  H 7.012269 -2.180549 -3.816035
  H 9.448089 -1.242557 -2.183955
  H 9.398479 -1.345778 -3.951488
  H 9.328885 -2.814779 -2.990340
 20
 2.431876
  C 1.023732 -0.257582 0.079040
  C 2.517665 -0.250984 0.037256
  C 3.235320 -0.207970 -1.083177
  C 4.682326 -0.273793 -1.110687
  C 5.378391 -0.930223 -2.049313
  C 6.813818 -1.027207 -2.064358
  C 7.506109 -1.706063 -2.980617
  C 8.991027 -1.818162 -3.009717
  H 0.660616 -0.044112 1.080550
  H 0.641291 -1.235649 -0.217633
  H 0.613159 0.479508 -0.610233
  H 3.026682 -0.335549 0.988890
  H 2.732343 -0.168183 -2.042495
  H 5.207968 0.211815 -0.296718
  H 4.848493 -1.456542 -2.833592
  H 7.339148 -0.507047 -1.272001
  H 6.980462 -2.226622 -3.772612
  H 9.443188 -1.243938 -2.204570
  H 9.379605 -1.456909 -3.962096
  H 9.292917 -2.861189 -2.909626
 20
 3.996924
  C 1.033037 -0.316014 0.059149
  C 2.527980 -0.321144 0.015081
  C 3.246208 -0.101046 -1.081050
  C 4.699142 -0.184437 -1.118898
  C 5.374505 -0.889553 -2.033913
  C 6.809900 -1.002587 -2.062762
  C 7.482703 -1.723802 -2.959367
  C 8.965996 -1.853204 -3.002586
  H 0.673618 -0.258971 1.083254
  H 0.639290 -1.230652 -0.386486
  H 0.630792 0.524597 -0.503603
  H 3.035578 -0.563645 0.939659
  H 2.747059 0.101732 -2.021429
  H 5.239043 0.328541 -0.332043
  H 4.831838 -1.441052 -2.790840
  H 7.349609 -0.457262 -1.298076
  H 6.941866 -2.269300 -3.722753
  H 9.435144 -1.240815 -2.236276
  H 9.344823 -1.549137 -3.978626
  H 9.258585 -2.892596 -2.848428
 20
 5.053157
  C 1.031802 -0.346082 0.040480
  C 2.526211 -0.393247 -0.007796
  C 3.253200 -0.053957 -1.064295
  C 4.708690 -0.152769 -1.108212
  C 5.372876 -0.867582 -2.022038
  C 6.808804 -0.990909 -2.059354
  C 7.471107 -1.722848 -2.956331
  C 8.952104 -1.867677 -3.003332
  H 0.669590 -0.496941 1.053014
  H 0.606563 -1.124637 -0.593214
  H 0.663509 0.612062 -0.322927
  H 3.024852 -0.766054 0.877004
  H 2.764005 0.289121 -1.968468
  H 5.257628 0.368539 -0.332949
  H 4.818420 -1.416576 -2.776055
  H 7.357459 -0.444372 -1.299783
  H 6.921596 -2.268577 -3.712097
  H 9.434543 -1.206438 -2.285478
  H 9.324266 -1.639897 -3.999747
  H 9.235867 -2.894686 -2.775738
 20
 4.931623
  C 1.030959 -0.359018 0.037658
  C 2.524724 -0.395590 -0.016859
  C 3.249577 -0.047262 -1.073451
  C 4.705945 -0.155666 -1.111791
  C 5.369813 -0.869028 -2.026306
  C 6.804520 -1.002653 -2.056822
  C 7.465730 -1.733089 -2.954797
  C 8.947146 -1.886110 -2.998745
  H 0.677805 -0.423118 1.063480
  H 0.612336 -1.199702 -0.516749
  H 0.648164 0.556160 -0.411165
  H 3.029654 -0.769848 0.864543
  H 2.761075 0.292038 -1.980032
  H 5.253499 0.349183 -0.323748
  H 4.816824 -1.409778 -2.783606
  H 7.352494 -0.465934 -1.291895
  H 6.916110 -2.269286 -3.718236
  H 9.426623 -1.278514 -2.234689
  H 9.330060 -1.591485 -3.976257
  H 9.223397 -2.929778 -2.841207
 20
 4.676067
  C 1.028363 -0.346893 0.046718
  C 2.518775 -0.383849 -0.014409
  C 3.242438 -0.057845 -1.080251
  C 4.699584 -0.174757 -1.113429
  C 5.368776 -0.867948 -2.040783
  C 6.804665 -1.008351 -2.059027
  C 7.471332 -1.727276 -2.961434
  C 8.954187 -1.883241 -2.995996
  H 0.682184 -0.331374 1.077497
  H 0.609939 -1.231015 -0.434948
  H 0.639423 0.528646 -0.472188
  H 3.027628 -0.739865 0.871939
  H 2.753032 0.253812 -1.998237
  H 5.245811 0.301361 -0.302698
  H 4.822531 -1.395349 -2.813812
  H 7.347679 -0.486842 -1.280345
  H 6.927222 -2.248268 -3.738628
  H 9.425472 -1.331645 -2.184434
  H 9.351078 -1.520029 -3.945933
  H 9.226336 -2.937749 -2.910273
