 20
 0.000000
  C 0.991705 0.129669 0.372750
  C 2.463206 0.144736 0.413349
  C 3.211604 0.620587 1.597797
  C 2.395333 1.100668 2.790409
  H 3.063556 1.419356 3.584644
  C 3.129917 -0.311800 -0.720762
  C 4.514778 -0.378929 -0.889440
  C 5.101794 -0.842840 -2.045282
  H 4.540254 -1.189799 -2.904548
  O 6.384250 -0.920150 -2.246203
  H 0.530264 0.495699 1.281493
  H 0.637869 -0.884694 0.180628
  H 0.639467 0.729313 -0.468333
  H 3.872930 1.434513 1.280243
  H 3.871712 -0.187419 1.932483
  H 1.763060 0.306776 3.180926
  H 1.764427 1.944889 2.522491
  H 2.515702 -0.644022 -1.546983
  H 5.159449 -0.054505 -0.083999
  H 6.930556 -0.614266 -1.494133
 20
 13.125054
  C 0.946996 0.139913 0.397697
  C 2.417530 0.147855 0.421031
  C 3.182720 0.619055 1.594149
  C 2.386323 1.103185 2.796968
  H 3.068467 1.417844 3.581566
  C 3.062922 -0.308783 -0.712946
  C 4.580253 -0.384914 -0.904292
  C 5.126702 -0.846002 -2.052234
  H 4.554455 -1.188631 -2.899206
  O 6.528992 -0.939450 -2.295014
  H 0.499532 0.508365 1.312312
  H 0.585463 -0.872599 0.208577
  H 0.587285 0.740374 -0.439995
  H 3.845540 1.427912 1.266602
  H 3.844212 -0.192326 1.918059
  H 1.755592 0.313187 3.197843
  H 1.757103 1.951898 2.539340
  H 2.452054 -0.640535 -1.537593
  H 5.227491 -0.062294 -0.104299
  H 7.071849 -0.635276 -1.549296
 20
 40.498875
  C 0.913026 0.148467 0.419414
  C 2.377298 0.149193 0.423876
  C 3.158087 0.614308 1.581468
  C 2.385024 1.102783 2.796026
  H 3.080453 1.413679 3.571432
  C 2.994251 -0.306403 -0.707956
  C 4.647366 -0.382655 -0.900436
  C 5.127206 -0.845656 -2.052135
  H 4.568268 -1.188521 -2.899713
  O 6.649176 -0.955659 -2.334161
  H 0.487353 0.519988 1.342505
  H 0.540795 -0.860622 0.238525
  H 0.542127 0.752056 -0.409826
  H 3.825129 1.415423 1.243245
  H 3.824173 -0.198682 1.892049
  H 1.753669 0.317972 3.206141
  H 1.754645 1.953798 2.549100
  H 2.419709 -0.645252 -1.549783
  H 5.271181 -0.056757 -0.092833
  H 7.149258 -0.645167 -1.569654
 20
 71.673012
  C 0.863380 0.156567 0.440234
  C 2.335318 0.150424 0.426832
  C 3.136806 0.609850 1.569717
  C 2.396101 1.100995 2.791345
  H 3.108891 1.405983 3.551570
  C 2.922240 -0.302246 -0.697784
  C 4.704552 -0.380079 -0.893837
  C 5.124196 -0.843389 -2.047431
  H 4.590639 -1.189395 -2.905036
  O 6.773097 -0.967231 -2.363132
  H 0.451550 0.530351 1.369027
  H 0.482782 -0.850885 0.259666
  H 0.483794 0.759052 -0.387595
  H 3.809340 1.403506 1.216636
  H 3.808661 -0.207863 1.864337
  H 1.766058 0.320999 3.216344
  H 1.766655 1.958709 2.558531
  H 2.382947 -0.647468 -1.555317
  H 5.306951 -0.049331 -0.073083
  H 7.230674 -0.650656 -1.580178
 20
 102.904541
  C 0.802723 0.167119 0.466868
  C 2.292314 0.152980 0.433243
  C 3.116133 0.611114 1.572704
  C 2.396780 1.106697 2.805593
  H 3.119617 1.407728 3.555649
  C 2.862331 -0.306128 -0.707590
  C 4.763660 -0.386205 -0.910064
  C 5.125346 -0.847537 -2.058480
  H 4.629697 -1.200717 -2.934521
  O 6.911742 -0.984219 -2.404685
  H 0.406739 0.544695 1.404984
  H 0.411584 -0.840891 0.288627
  H 0.412434 0.771469 -0.359721
  H 3.793308 1.396392 1.207774
  H 3.792894 -0.208589 1.852857
  H 1.766339 0.332141 3.239374
  H 1.766793 1.966450 2.582903
  H 2.356197 -0.658367 -1.582394
  H 5.344693 -0.049232 -0.073834
  H 7.340090 -0.660423 -1.602204
 20
 130.811756
  C 0.774885 0.177931 0.493842
  C 2.254696 0.156213 0.441160
  C 3.089896 0.610342 1.570621
  C 2.385028 1.108353 2.809683
  H 3.115659 1.407669 3.555805
  C 2.798917 -0.305979 -0.707183
  C 4.801913 -0.387784 -0.914036
  C 5.107598 -0.848172 -2.059935
  H 4.655255 -1.205756 -2.947422
  O 7.047252 -1.000646 -2.445930
  H 0.401736 0.557887 1.437772
  H 0.376885 -0.825288 0.322992
  H 0.377558 0.783731 -0.324176
  H 3.768418 1.390827 1.196656
  H 3.767928 -0.212183 1.840763
  H 1.752220 0.337026 3.247778
  H 1.752891 1.968872 2.592464
  H 2.324621 -0.662457 -1.592323
  H 5.355234 -0.048241 -0.071442
  H 7.455429 -0.677714 -1.644814
 20
 152.691081
  C 0.739847 0.178357 0.511966
  C 2.229760 0.156017 0.441388
  C 3.076839 0.610132 1.568613
  C 2.384274 1.107378 2.808830
  H 3.121134 1.408590 3.548471
  C 2.740893 -0.298021 -0.704288
  C 4.803129 -0.364391 -0.919564
  C 5.061517 -0.827766 -2.047020
  H 4.641841 -1.200282 -2.953270
  O 7.194472 -1.034139 -2.472369
  H 0.388625 0.555580 1.462073
  H 0.339169 -0.819554 0.347400
  H 0.333028 0.787182 -0.292585
  H 3.754227 1.388410 1.190867
  H 3.756276 -0.211903 1.833399
  H 1.754357 0.335499 3.253107
  H 1.747571 1.967166 2.595345
  H 2.283922 -0.661323 -1.604064
  H 5.338250 -0.015551 -0.068892
  H 7.616097 -0.723900 -1.665104
 20
 132.075108
  C 0.755108 0.202624 0.607574
  C 2.207774 0.190414 0.374462
  C 3.175805 0.585010 1.440389
  C 2.600495 1.016582 2.779846
  H 3.411035 1.282498 3.455887
  C 2.632758 -0.202669 -0.862284
  C 4.047471 -0.306436 -1.242862
  C 4.601096 -0.719121 -2.303068
  H 4.950121 -1.114579 -3.297088
  O 7.588797 -1.048374 -1.746925
  H 0.502412 0.508819 1.611592
  H 0.339825 -0.786454 0.423045
  H 0.270370 0.873607 -0.099509
  H 3.792333 1.407972 1.062243
  H 3.856518 -0.255178 1.623123
  H 2.031313 0.216712 3.244072
  H 1.957523 1.884440 2.675991
  H 1.917372 -0.478227 -1.627176
  H 4.663980 -0.018235 -0.388523
  H 7.933754 -0.889029 -0.859303
 20
 129.216959
  C 0.715699 0.254803 0.678739
  C 2.146404 0.165378 0.330619
  C 3.215522 0.514249 1.304004
  C 2.779855 0.957873 2.691924
  H 3.656790 1.177952 3.296319
  C 2.473047 -0.253007 -0.926799
  C 3.812345 -0.408665 -1.404093
  C 4.508738 -0.770829 -2.383826
  H 5.178227 -1.056222 -3.159854
  O 7.524944 -0.808365 -1.249609
  H 0.551534 0.561965 1.703556
  H 0.227237 -0.705175 0.511001
  H 0.215442 0.959841 0.013722
  H 3.824270 1.318672 0.869766
  H 3.871758 -0.358516 1.419792
  H 2.215205 0.178524 3.199666
  H 2.172806 1.859987 2.648811
  H 1.709356 -0.502922 -1.647451
  H 4.563911 -0.095170 -0.632536
  H 7.913619 -0.671218 -0.381333
