 20
 0.000000
  C 1.006600 -0.071485 0.047722
  C 2.502916 -0.082175 0.026739
  C 3.219639 -0.594706 -0.979448
  C 4.657053 -0.605681 -1.000992
  C 5.378067 -1.120873 -2.012398
  C 6.816197 -1.130857 -2.031995
  C 7.534976 -1.642519 -3.036480
  C 9.024821 -1.662080 -3.074875
  H 0.643202 0.394424 0.962374
  H 0.611548 -1.086305 0.007997
  H 0.611551 0.493053 -0.796510
  H 3.002959 0.353247 0.881547
  H 2.709058 -1.028238 -1.830533
  H 5.161466 -0.170837 -0.147324
  H 4.874094 -1.555783 -2.866200
  H 7.322582 -0.696369 -1.179022
  H 7.036287 -2.078741 -3.892841
  H 9.458072 -1.208897 -2.185206
  H 9.384158 -1.116478 -3.948682
  H 9.384155 -2.689681 -3.147321
 20
 15.005577
  C 0.926404 -0.050314 0.089288
  C 2.422012 -0.061910 0.066519
  C 3.140177 -0.574722 -0.940219
  C 4.569259 -0.585774 -0.961914
  C 5.335759 -1.141710 -2.053308
  C 6.934116 -1.149604 -2.068799
  C 7.646357 -1.660927 -3.072618
  C 9.136297 -1.683041 -3.116020
  H 0.560857 0.414802 1.002379
  H 0.531699 -1.064948 0.045744
  H 0.531698 0.511024 -0.757039
  H 2.923991 0.372870 0.920066
  H 2.629831 -1.008398 -1.791586
  H 5.083178 -0.154778 -0.115799
  H 4.834842 -1.573803 -2.901578
  H 7.428664 -0.714047 -1.213724
  H 7.144770 -2.096651 -3.928004
  H 9.569941 -1.230150 -2.226920
  H 9.494316 -1.139243 -3.990894
  H 9.494307 -2.710434 -3.190551
 20
 44.286390
  C 0.868271 -0.025799 0.137406
  C 2.365405 -0.049791 0.090316
  C 3.071638 -0.568021 -0.927061
  C 4.512273 -0.589851 -0.969907
  C 5.241275 -1.168921 -2.106697
  C 7.075141 -1.150080 -2.069717
  C 7.735859 -1.658982 -3.068784
  C 9.224849 -1.696854 -3.143139
  H 0.511148 0.438255 1.048403
  H 0.466388 -1.038990 0.085137
  H 0.466404 0.527639 -0.712872
  H 2.889842 0.380688 0.935432
  H 2.551110 -0.996773 -1.768783
  H 5.077370 -0.176501 -0.158436
  H 4.787931 -1.609145 -2.970938
  H 7.469720 -0.698653 -1.183506
  H 7.219974 -2.087127 -3.909299
  H 9.670718 -1.248648 -2.263235
  H 9.568307 -1.159924 -4.024468
  H 9.568282 -2.725393 -3.227011
 20
 76.103871
  C 0.817602 -0.001383 0.185383
  C 2.305285 -0.043069 0.103512
  C 2.977947 -0.567468 -0.925997
  C 4.407529 -0.604557 -0.998815
  C 5.091096 -1.175684 -2.120035
  C 7.222145 -1.145631 -2.061001
  C 7.856336 -1.662132 -3.074980
  C 9.353133 -1.715761 -3.180253
  H 0.486583 0.470380 1.111535
  H 0.403143 -1.008479 0.140647
  H 0.403091 0.554569 -0.655599
  H 2.852905 0.380058 0.934177
  H 2.432594 -0.995250 -1.765806
  H 4.993110 -0.191001 -0.186923
  H 4.683497 -1.620131 -2.992573
  H 7.559306 -0.687302 -1.161233
  H 7.319444 -2.089629 -3.914226
  H 9.822216 -1.271549 -2.308212
  H 9.680514 -1.182064 -4.068295
  H 9.680525 -2.747924 -3.270707
 20
 102.265576
  C 0.739032 0.029864 0.246487
  C 2.234759 -0.034270 0.120883
  C 2.868038 -0.566523 -0.923925
  C 4.305430 -0.625054 -1.038766
  C 4.941297 -1.180100 -2.128421
  C 7.386325 -1.147140 -2.063921
  C 7.999124 -1.666844 -3.084220
  C 9.500956 -1.736992 -3.222071
  H 0.444300 0.503166 1.175567
  H 0.307775 -0.972031 0.216774
  H 0.307945 0.594925 -0.581429
  H 2.812221 0.381547 0.937288
  H 2.303657 -0.983482 -1.742607
  H 4.895044 -0.216657 -0.237044
  H 4.565575 -1.635485 -3.022433
  H 7.682664 -0.682071 -1.150908
  H 7.448737 -2.089401 -3.913807
  H 9.994372 -1.295589 -2.355530
  H 9.813996 -1.201948 -4.122493
  H 9.814051 -2.779881 -3.318742
 20
 120.023600
  C 0.672216 0.058693 0.303487
  C 2.156067 -0.023947 0.140901
  C 2.754674 -0.564055 -0.919543
  C 4.196255 -0.639504 -1.067625
  C 4.811243 -1.185960 -2.140327
  C 7.543128 -1.152053 -2.073764
  C 8.142360 -1.672661 -3.095680
  C 9.644132 -1.758625 -3.264288
  H 0.408584 0.537053 1.242670
  H 0.228132 -0.936765 0.285180
  H 0.227924 0.629146 -0.512448
  H 2.757264 0.384298 0.942325
  H 2.163731 -0.975819 -1.727792
  H 4.783230 -0.228683 -0.261049
  H 4.482574 -1.645485 -3.042431
  H 7.803273 -0.682671 -1.152250
  H 7.580745 -2.092671 -3.920160
  H 10.157510 -1.323558 -2.410209
  H 9.940642 -1.227575 -4.166865
  H 9.940569 -2.800979 -3.365334
 20
 131.592404
  C 0.593831 0.086339 0.358018
  C 2.068536 -0.009730 0.168670
  C 2.641618 -0.555306 -0.902646
  C 4.085306 -0.644738 -1.078214
  C 4.685136 -1.186391 -2.141442
  C 7.694383 -1.166043 -2.101324
  C 8.291217 -1.685908 -3.121753
  C 9.799578 -1.781062 -3.308246
  H 0.353730 0.566015 1.299913
  H 0.141737 -0.901766 0.348808
  H 0.141287 0.659775 -0.446559
  H 2.686487 0.392372 0.957937
  H 2.034941 -0.961106 -1.699043
  H 4.678090 -0.234640 -0.273005
  H 4.384143 -1.648172 -3.047972
  H 7.933987 -0.696026 -1.178555
  H 7.722539 -2.105271 -3.944919
  H 10.324927 -1.349104 -2.460266
  H 10.087665 -1.252892 -4.212744
  H 10.087586 -2.823601 -3.412753
 20
 138.767590
  C 0.520388 0.117502 0.419172
  C 1.987730 0.004948 0.197519
  C 2.529430 -0.546126 -0.884571
  C 3.971846 -0.653019 -1.094424
  C 4.541750 -1.183929 -2.136606
  C 7.846130 -1.187511 -2.143511
  C 8.458312 -1.704413 -3.158163
  C 9.945570 -1.796244 -3.338152
  H 0.307247 0.599665 1.365971
  H 0.063403 -0.855490 0.420890
  H 0.063013 0.690874 -0.366752
  H 2.625282 0.399452 0.971886
  H 1.894433 -0.952839 -1.682793
  H 4.579466 -0.250220 -0.303559
  H 4.258227 -1.655792 -3.062939
  H 8.058142 -0.723017 -1.231583
  H 7.899720 -2.125869 -3.985483
  H 10.473151 -1.356305 -2.474728
  H 10.236612 -1.263167 -4.251742
  H 10.236852 -2.849702 -3.444320
 20
 142.339709
  C 0.433316 0.149440 0.480538
  C 1.906514 0.020546 0.229062
  C 2.422712 -0.535630 -0.862402
  C 3.860785 -0.655990 -1.098590
  C 4.416960 -1.190582 -2.148282
  C 7.979484 -1.220450 -2.207534
  C 8.612436 -1.730670 -3.209444
  C 10.114992 -1.813992 -3.373423
  H 0.240889 0.637922 1.439199
  H -0.039567 -0.829891 0.490338
  H -0.038739 0.733486 -0.306128
  H 2.561599 0.407484 0.989094
  H 1.780187 -0.930506 -1.638247
  H 4.485487 -0.249209 -0.300094
  H 4.154864 -1.654853 -3.059894
  H 8.168909 -0.745976 -1.275889
  H 8.068807 -2.156165 -4.045157
  H 10.622485 -1.377418 -2.516201
  H 10.412683 -1.280229 -4.279545
  H 10.412843 -2.860341 -3.474837
 20
 143.916416
  C 0.343721 0.176289 0.534402
  C 1.813276 0.042241 0.270594
  C 2.317660 -0.516509 -0.826411
  C 3.753856 -0.643113 -1.074648
  C 4.303260 -1.181438 -2.131408
  C 8.118535 -1.259310 -2.284350
  C 8.774195 -1.763289 -3.273634
  C 10.290783 -1.834368 -3.413029
  H 0.162585 0.662193 1.488471
  H -0.135069 -0.804275 0.548737
  H -0.135386 0.764317 -0.250201
  H 2.481539 0.429295 1.030452
  H 1.667481 -0.906742 -1.592341
  H 4.380648 -0.240540 -0.284263
  H 4.026261 -1.648088 -3.047517
  H 8.300670 -0.781713 -1.346649
  H 8.247132 -2.192805 -4.116887
  H 10.778606 -1.395665 -2.551809
  H 10.596933 -1.302741 -4.305661
  H 10.596990 -2.869341 -3.508001
 20
 144.454704
  C 0.250343 0.204750 0.590556
  C 1.718227 0.064594 0.314253
  C 2.211890 -0.495707 -0.785962
  C 3.646531 -0.627976 -1.045217
  C 4.185664 -1.165854 -2.101037
  C 8.257834 -1.311289 -2.386337
  C 8.952431 -1.804670 -3.354760
  C 10.470494 -1.851468 -3.446299
  H 0.077481 0.694528 1.552395
  H -0.230193 -0.769438 0.608523
  H -0.230868 0.791923 -0.186669
  H 2.387353 0.445081 1.061142
  H 1.551925 -0.884560 -1.549015
  H 4.279438 -0.226126 -0.256168
  H 3.897058 -1.630049 -3.012364
  H 8.412767 -0.833575 -1.448385
  H 8.458669 -2.243136 -4.215634
  H 10.924254 -1.404358 -2.568389
  H 10.796885 -1.312261 -4.332694
  H 10.796720 -2.885495 -3.531444
 20
 144.672077
  C 0.164698 0.232015 0.643588
  C 1.628416 0.087718 0.360009
  C 2.114249 -0.474094 -0.743013
  C 3.547975 -0.610573 -1.010692
  C 4.075547 -1.148188 -2.066083
  C 8.401457 -1.357030 -2.476134
  C 9.123205 -1.842535 -3.429226
  C 10.639301 -1.871199 -3.485153
  H 0.000929 0.715477 1.592775
  H -0.322229 -0.746508 0.663883
  H -0.322116 0.823444 -0.135553
  H 2.308442 0.469032 1.108596
  H 1.446059 -0.862575 -1.505630
  H 4.187014 -0.212091 -0.228220
  H 3.779770 -1.610334 -2.973435
  H 8.523314 -0.876685 -1.532998
  H 8.653182 -2.287603 -4.303038
  H 11.067677 -1.417389 -2.593823
  H 10.979908 -1.327481 -4.363567
  H 10.979585 -2.901320 -3.561892
 20
 144.644441
  C 0.074367 0.255736 0.690119
  C 1.536731 0.110960 0.405416
  C 2.020415 -0.451298 -0.698278
  C 3.453627 -0.589011 -0.967943
  C 3.981465 -1.128077 -2.026205
  C 8.549713 -1.400889 -2.561906
  C 9.293396 -1.879173 -3.500982
  C 10.810767 -1.894657 -3.531249
  H -0.089187 0.742729 1.646168
  H -0.411259 -0.720638 0.710999
  H -0.411433 0.846345 -0.087158
  H 2.218100 0.492606 1.154629
  H 1.353425 -0.837902 -1.457132
  H 4.092329 -0.190058 -0.184809
  H 3.668899 -1.589476 -2.932272
  H 8.642564 -0.919634 -1.616951
  H 8.844363 -2.327241 -4.381172
  H 11.220176 -1.437300 -2.632880
  H 11.160802 -1.348025 -4.404343
  H 11.160720 -2.922125 -3.602908
 20
 144.759625
  C -0.016275 0.280027 0.742173
  C 1.447172 0.139267 0.454962
  C 1.930922 -0.422978 -0.649041
  C 3.362744 -0.561935 -0.917661
  C 3.891186 -1.104597 -1.982083
  C 8.691040 -1.455616 -2.667609
  C 9.468165 -1.922667 -3.584448
  C 10.985935 -1.916840 -3.573039
  H -0.180909 0.768899 1.703024
  H -0.497082 -0.694610 0.763823
  H -0.503238 0.867224 -0.031806
  H 2.128189 0.521853 1.203355
  H 1.263893 -0.810780 -1.406544
  H 4.003056 -0.163488 -0.137791
  H 3.558064 -1.569264 -2.895457
  H 8.744745 -0.974088 -1.722411
  H 9.053021 -2.372947 -4.471576
  H 11.361355 -1.456873 -2.668330
  H 11.353441 -1.363007 -4.437109
  H 11.353278 -2.940639 -3.634695
