 17
 0.000000
  H 1.390837 0.180523 0.499668
  C 2.459196 0.133412 0.382660
  H 3.086926 0.459741 1.194817
  C 2.991639 -0.335534 -0.784823
  C 4.378765 -0.411351 -0.974482
  C 5.101594 -0.859467 -2.091967
  C 4.622056 -1.381281 -3.392464
  C 3.139524 -1.504289 -3.698640
  H 3.025025 -1.906325 -4.700588
  O 6.407817 -0.838170 -2.039516
  H 2.319144 -0.648750 -1.564540
  H 4.981999 -0.074903 -0.137044
  H 5.097428 -2.362587 -3.515234
  H 5.097415 -0.757111 -4.159597
  H 2.646801 -0.536101 -3.671188
  H 2.647023 -2.185115 -3.009572
  H 6.785072 -0.502980 -1.201948
 17
 17.761971
  H 1.417035 0.227369 0.616104
  C 2.540878 0.146871 0.416018
  H 3.200746 0.464128 1.206263
  C 3.001973 -0.327629 -0.765919
  C 4.434315 -0.432092 -1.026560
  C 5.033728 -0.881095 -2.146387
  C 4.631043 -1.405150 -3.452599
  C 3.157170 -1.527517 -3.755979
  H 3.042487 -1.929713 -4.758264
  O 6.268820 -0.778331 -1.890372
  H 2.304376 -0.635024 -1.531911
  H 5.025349 -0.096104 -0.189019
  H 5.118181 -2.375049 -3.559324
  H 5.117689 -0.777924 -4.200336
  H 2.663636 -0.559935 -3.729331
  H 2.664460 -2.208821 -3.067724
  H 6.563919 -0.433563 -1.027277
 17
 65.078565
  H 1.413509 0.262972 0.707555
  C 2.586090 0.161034 0.451019
  H 3.256494 0.476252 1.233267
  C 2.987636 -0.316658 -0.738421
  C 4.517319 -0.444134 -1.057083
  C 5.001299 -0.895710 -2.182396
  C 4.648500 -1.423338 -3.497838
  C 3.163451 -1.550499 -3.813486
  H 3.047304 -1.953430 -4.817481
  O 6.181405 -0.741581 -1.799879
  H 2.282149 -0.618966 -1.490480
  H 5.036575 -0.095380 -0.187530
  H 5.140704 -2.388315 -3.590767
  H 5.141823 -0.789861 -4.231054
  H 2.669000 -0.582498 -3.784365
  H 2.670083 -2.230276 -3.123272
  H 6.461218 -0.400316 -0.942877
 17
 115.806135
  H 1.380845 0.253254 0.734744
  C 2.535860 0.162311 0.479636
  H 3.172037 0.503134 1.270532
  C 2.866160 -0.285012 -0.681300
  C 4.691562 -0.446822 -1.083880
  C 4.979974 -0.914856 -2.227022
  C 4.653386 -1.442848 -3.543387
  C 3.162150 -1.555951 -3.823544
  H 3.025884 -1.963147 -4.824703
  O 6.229898 -0.708774 -1.773942
  H 2.264159 -0.599579 -1.508865
  H 5.065936 -0.094226 -0.151223
  H 5.125120 -2.425648 -3.624897
  H 5.128916 -0.794389 -4.285391
  H 2.677952 -0.574841 -3.791070
  H 2.677728 -2.236745 -3.115462
  H 6.588982 -0.408846 -0.920370
 17
 138.870117
  H 1.274662 0.326558 0.911996
  C 2.344875 0.199313 0.550351
  H 3.063939 0.503843 1.283694
  C 2.585626 -0.290859 -0.611199
  C 4.910363 -0.466225 -1.131092
  C 5.039577 -0.955550 -2.287550
  C 4.696446 -1.489501 -3.578555
  C 3.192568 -1.537538 -3.825905
  H 3.013893 -1.939182 -4.828024
  O 6.375874 -0.719777 -1.829493
  H 2.011304 -0.632858 -1.432819
  H 5.103828 -0.063928 -0.172943
  H 5.157438 -2.476676 -3.690673
  H 5.181195 -0.848393 -4.329418
  H 2.756371 -0.537948 -3.777188
  H 2.697509 -2.195648 -3.104510
  H 6.836500 -0.415949 -1.021270
 17
 143.643937
  H 1.055992 0.383259 1.150374
  C 2.059847 0.255600 0.705319
  H 2.852401 0.560356 1.381080
  C 2.247431 -0.228516 -0.479772
  C 5.114336 -0.485842 -1.219914
  C 5.159241 -0.991666 -2.391160
  C 4.785541 -1.534738 -3.657691
  C 3.266963 -1.535657 -3.837349
  H 3.022365 -1.937793 -4.816140
  O 6.548738 -0.763289 -1.955292
  H 1.638520 -0.557013 -1.294296
  H 5.242793 -0.119933 -0.174099
  H 5.221316 -2.529789 -3.787050
  H 5.254075 -0.909832 -4.431110
  H 2.870463 -0.523937 -3.761440
  H 2.785208 -2.160850 -3.075167
  H 7.119582 -0.456057 -1.221791
 17
 143.724834
  H 0.929281 0.407984 1.164146
  C 1.931941 0.247150 0.727628
  H 2.723410 0.512699 1.409630
  C 2.125945 -0.210125 -0.461534
  C 5.314533 -0.489313 -1.278973
  C 5.234655 -0.998117 -2.435943
  C 4.798986 -1.540311 -3.680656
  C 3.272159 -1.513336 -3.775131
  H 2.969732 -1.924071 -4.733663
  O 6.670080 -0.748346 -1.974473
  H 1.520562 -0.518151 -1.282979
  H 5.311854 -0.178793 -0.264340
  H 5.195178 -2.551676 -3.801537
  H 5.239624 -0.949567 -4.491882
  H 2.898567 -0.496989 -3.696304
  H 2.823507 -2.116391 -2.991167
  H 7.268925 -0.455765 -1.256449
 17
 143.479387
  H 0.769778 0.434817 1.262038
  C 1.762939 0.268887 0.804779
  H 2.566600 0.507190 1.473476
  C 1.930558 -0.168915 -0.393001
  C 5.469456 -0.505734 -1.362215
  C 5.275988 -1.020006 -2.509721
  C 4.838152 -1.556698 -3.732834
  C 3.303243 -1.507035 -3.753457
  H 2.952065 -1.927104 -4.690732
  O 6.799075 -0.738508 -1.999293
  H 1.313775 -0.459230 -1.214686
  H 5.458079 -0.237360 -0.335736
  H 5.194325 -2.583638 -3.832707
  H 5.254665 -0.989571 -4.568348
  H 2.949022 -0.482552 -3.670185
  H 2.887325 -2.081347 -2.931713
  H 7.442054 -0.470448 -1.312955
 17
 126.451535
  H 0.680396 0.388305 1.121947
  C 1.653994 0.235509 0.673351
  H 2.471732 0.530944 1.319011
  C 1.818419 -0.255118 -0.491590
  C 5.751130 -0.507880 -1.440712
  C 5.234813 -1.062677 -2.475894
  C 4.768639 -1.539849 -3.736315
  C 3.196607 -1.436314 -3.589908
  H 2.756736 -1.793372 -4.537253
  O 7.124623 -0.775964 -1.895146
  H 1.262641 -0.624594 -1.324668
  H 5.628437 -0.165835 -0.437473
  H 5.105290 -2.577596 -3.908532
  H 5.127177 -0.924905 -4.583275
  H 2.867662 -0.403860 -3.410258
  H 2.845249 -2.053818 -2.751454
  H 7.786780 -0.550410 -1.218948
 17
 104.358546
  H 1.001864 0.493707 1.211350
  C 1.871943 0.246335 0.602845
  H 2.792149 0.483739 1.123551
  C 1.791889 -0.255461 -0.555475
  C 5.915220 -0.605134 -1.547894
  C 5.235344 -1.122130 -2.511873
  C 4.629988 -1.528496 -3.725173
  C 3.084577 -1.511929 -3.659857
  H 2.691039 -1.840660 -4.618485
  O 7.271334 -0.557677 -1.437782
  H 1.363682 -0.643526 -1.442919
  H 5.358573 -0.289915 -0.663457
  H 4.930798 -2.558819 -3.939647
  H 4.933415 -0.854752 -4.530034
  H 2.735990 -0.501467 -3.461260
  H 2.740273 -2.192532 -2.883046
  H 7.557146 -0.244113 -0.565762
