26

C 0.955473 0.142417 0.407036
C 2.43139 0.138375 0.396254
C 3.225667 0.605236 1.557061
C 2.461594 1.097804 2.782627
H 3.1417812644905223 1.405928036573401 3.548985182125443
C 3.040241 -0.328066 -0.764349
C 4.417027 -0.409834 -0.969005
C 5.108629 -0.859137 -2.089578
C 4.617715 -1.38221 -3.394256
C 3.130086 -1.502652 -3.695591
H 2.989629533190128 -1.8973618866268627 -4.680159985054017
O 6.427962 -0.850409 -2.068213
H 0.5348 0.514717 1.333137
H 0.580835 -0.867497 0.236028
H 0.58035 0.752667 -0.415404
H 3.883428 1.413815 1.219579
H 3.883726 -0.211689 1.873108
H 1.825753 0.303823 3.177745
H 1.825549 1.944242 2.518362
H 2.370371 -0.642604 -1.546367
H 5.042108 -0.079879 -0.148002
H 5.081501 -2.367461 -3.517593
H 5.082043 -0.755415 -4.164069
H 2.651821 -0.524197 -3.646489
H 2.651421 -2.175999 -2.984287
H 6.8192 -0.519344 -1.240689
