17

C 0.897619 0.036225 0.27116
C 2.391425 0.042963 0.091675
C 3.233957 -0.026184 1.35737
H 2.7316782961868316 -0.06245481893371311 2.3014571418410705
C 2.991432 0.115832 -1.115578
H 2.531443811109414 0.18268866680918489 -2.079342002328539
C 4.447412 0.122099 -1.21009
C 5.183635 0.195514 -2.320017
O 6.543367 0.196542 -2.337128
H 0.622809 -0.025968 1.316242
H 0.448628 -0.816527 -0.231388
H 0.454008 0.946012 -0.124743
H 3.890998 0.849357 1.380981
H 3.8714 -0.913904 1.30925
H 4.996853 0.059763 -0.281317
H 4.799792 0.262574 -3.324035
H 6.880235 0.136251 -1.432943
