 26
 0.000000
  C 0.921838 0.047642 0.291376
  C 2.409468 0.060260 0.067727
  C 3.226792 -0.011399 1.337788
  H 2.626160 -0.062155 2.237232
  C 3.002683 0.128429 -1.140359
  C 2.357443 0.205722 -2.510153
  C 0.844236 0.217130 -2.712273
  C 0.517226 0.301135 -4.201038
  C 4.461099 0.133250 -1.225723
  C 5.205222 0.195727 -2.333066
  O 6.564977 0.196286 -2.342923
  H 0.681482 -0.012130 1.350609
  H 0.459208 -0.814987 -0.181071
  H 0.459208 0.957942 -0.081028
  H 3.868461 0.867523 1.420422
  H 3.868469 -0.894039 1.321024
  H 2.745442 -0.642404 -3.084930
  H 2.745444 1.113132 -2.985875
  H 0.395699 1.076773 -2.216272
  H 0.395702 -0.692850 -2.316128
  H 0.927398 1.209602 -4.637426
  H -0.560529 0.309502 -4.349293
  H 0.927396 -0.552473 -4.736854
  H 5.004863 0.080592 -0.292478
  H 4.830123 0.252629 -3.341469
  H 6.894050 0.145120 -1.436083
 26
 7.254666
  C 0.802516 0.046462 0.312276
  C 2.446486 0.060868 0.056949
  C 3.254910 -0.010678 1.325002
  H 2.642888 -0.061125 2.218961
  C 3.030069 0.128828 -1.147420
  C 2.378200 0.205866 -2.512698
  C 0.864380 0.216551 -2.702012
  C 0.525724 0.300419 -4.188335
  C 4.487746 0.133965 -1.238382
  C 5.226029 0.196531 -2.347302
  O 6.584777 0.197395 -2.362570
  H 0.576726 -0.013405 1.373187
  H 0.342315 -0.814917 -0.158414
  H 0.342315 0.955324 -0.058522
  H 3.895212 0.868082 1.413628
  H 3.895218 -0.893828 1.314210
  H 2.763082 -0.642177 -3.089708
  H 2.763083 1.113440 -2.990645
  H 0.420120 1.075744 -2.201691
  H 0.420122 -0.693468 -2.301524
  H 0.932496 1.209014 -4.627698
  H -0.553067 0.308340 -4.328692
  H 0.932495 -0.552984 -4.727123
  H 5.035335 0.081435 -0.307406
  H 4.846392 0.253335 -3.353982
  H 6.918028 0.146311 -1.457181
 26
 22.445957
  C 0.692469 0.045776 0.324428
  C 2.492832 0.061940 0.037952
  C 3.255252 -0.010162 1.315839
  H 2.602288 -0.059134 2.183652
  C 3.062585 0.129663 -1.162204
  C 2.402451 0.206334 -2.520976
  C 0.888596 0.215463 -2.682721
  C 0.523740 0.299004 -4.163243
  C 4.522462 0.135015 -1.256992
  C 5.256654 0.197764 -2.369157
  O 6.614022 0.198895 -2.389160
  H 0.502763 -0.014253 1.388207
  H 0.248394 -0.815029 -0.147816
  H 0.248393 0.954243 -0.047978
  H 3.890963 0.868547 1.429796
  H 3.890966 -0.896105 1.330223
  H 2.781686 -0.641742 -3.101900
  H 2.781681 1.114374 -3.002807
  H 0.454708 1.073428 -2.172297
  H 0.454709 -0.694472 -2.272055
  H 0.922727 1.207877 -4.609276
  H -0.557102 0.305919 -4.285773
  H 0.922724 -0.553923 -4.708686
  H 5.073132 0.082552 -0.327190
  H 4.872378 0.254480 -3.374321
  H 6.952099 0.147902 -1.485354
 26
 39.089849
  C 0.575755 0.043656 0.361997
  C 2.530093 0.062390 0.029996
  C 3.268067 -0.010595 1.323531
  H 2.592577 -0.058518 2.172768
  C 3.088836 0.130815 -1.182615
  C 2.423691 0.207403 -2.539930
  C 0.907872 0.215470 -2.682849
  C 0.523411 0.298723 -4.158264
  C 4.550023 0.136147 -1.277037
  C 5.282094 0.198835 -2.388129
  O 6.640035 0.200041 -2.409488
  H 0.428901 -0.016750 1.432457
  H 0.143275 -0.823607 -0.112179
  H 0.143274 0.958756 -0.011601
  H 3.901242 0.869024 1.453774
  H 3.901251 -0.899281 1.353995
  H 2.799521 -0.640654 -3.123175
  H 2.799520 1.115691 -3.024073
  H 0.481962 1.072673 -2.164815
  H 0.481960 -0.694566 -2.264532
  H 0.916441 1.207757 -4.609203
  H -0.558829 0.304882 -4.267388
  H 0.916436 -0.553811 -4.708599
  H 5.099779 0.083603 -0.345795
  H 4.895840 0.255499 -3.392419
  H 6.980307 0.149106 -1.506668
 26
 55.742676
  C 0.463422 0.044433 0.348229
  C 2.575550 0.064438 -0.006299
  C 3.276036 -0.009052 1.296160
  H 2.575272 -0.055839 2.125270
  C 3.117997 0.131530 -1.195285
  C 2.446668 0.207537 -2.542301
  C 0.928998 0.213622 -2.650096
  C 0.507939 0.296290 -4.115124
  C 4.579789 0.136536 -1.283940
  C 5.317485 0.199286 -2.396121
  O 6.674840 0.200280 -2.413711
  H 0.344578 -0.015995 1.419080
  H 0.050490 -0.824779 -0.131984
  H 0.050489 0.962151 -0.031149
  H 3.905317 0.870213 1.443375
  H 3.905321 -0.899289 1.343528
  H 2.815035 -0.640415 -3.129898
  H 2.815033 1.116205 -3.030777
  H 0.516606 1.069980 -2.119022
  H 0.516601 -0.697041 -2.218727
  H 0.888852 1.205828 -4.575493
  H -0.576544 0.300966 -4.197923
  H 0.888850 -0.555692 -4.674891
  H 5.123903 0.083790 -0.349106
  H 4.933371 0.256006 -3.401376
  H 7.013464 0.149306 -1.510220
 26
 69.127490
  C 0.343464 0.041119 0.406963
  C 2.602123 0.065908 -0.032346
  C 3.238707 -0.009500 1.304104
  H 2.499699 -0.054251 2.097172
  C 3.134448 0.133953 -1.238232
  C 2.474328 0.210089 -2.587545
  C 0.952245 0.214018 -2.657163
  C 0.484299 0.295754 -4.105646
  C 4.608241 0.137529 -1.301567
  C 5.365250 0.200447 -2.416669
  O 6.726678 0.200977 -2.426038
  H 0.370859 -0.019406 1.479548
  H -0.013043 -0.843311 -0.084165
  H -0.013042 0.975187 0.018452
  H 3.861770 0.869431 1.482567
  H 3.861771 -0.902920 1.382553
  H 2.839474 -0.638548 -3.175081
  H 2.839483 1.119433 -3.075879
  H 0.562993 1.068582 -2.105190
  H 0.562992 -0.697215 -2.204829
  H 0.850236 1.205819 -4.577262
  H -0.602184 0.298577 -4.155630
  H 0.850232 -0.555479 -4.676651
  H 5.126322 0.083967 -0.352267
  H 4.983932 0.257292 -3.424132
  H 7.061161 0.149879 -1.520390
 26
 82.326977
  C 0.222846 0.042383 0.384582
  C 2.645244 0.066672 -0.045863
  C 3.250611 -0.008873 1.293008
  H 2.493288 -0.052822 2.071845
  C 3.184639 0.134758 -1.252472
  C 2.506302 0.210342 -2.592023
  C 0.986083 0.211858 -2.618867
  C 0.475203 0.292889 -4.054879
  C 4.649968 0.138942 -1.326576
  C 5.373793 0.200466 -2.417003
  O 6.727930 0.201604 -2.437152
  H 0.241050 -0.018205 1.458282
  H -0.120159 -0.843409 -0.116033
  H -0.120157 0.978869 -0.013202
  H 3.871448 0.871517 1.483728
  H 3.871455 -0.905128 1.383479
  H 2.859976 -0.638980 -3.187235
  H 2.859981 1.121229 -3.087910
  H 0.611802 1.064844 -2.054949
  H 0.611792 -0.699167 -2.154474
  H 0.825576 1.203524 -4.537161
  H -0.612201 0.293915 -4.073028
  H 0.825565 -0.557697 -4.636531
  H 5.176918 0.085719 -0.383284
  H 4.982707 0.256991 -3.418830
  H 7.068896 0.150739 -1.535602
 26
 92.533848
  C 0.098303 0.037774 0.466269
  C 2.664171 0.067577 -0.061887
  C 3.239195 -0.008793 1.291551
  H 2.468695 -0.051854 2.054666
  C 3.201670 0.135538 -1.266272
  C 2.520876 0.211865 -2.618994
  C 1.003106 0.212751 -2.634664
  C 0.474438 0.293360 -4.063233
  C 4.669110 0.139189 -1.330931
  C 5.404907 0.201324 -2.432219
  O 6.759025 0.202397 -2.451204
  H 0.212790 -0.022150 1.528193
  H -0.218387 -0.847336 -0.032492
  H -0.218384 0.973379 0.070251
  H 3.856918 0.870847 1.495062
  H 3.856929 -0.905751 1.394818
  H 2.873471 -0.637778 -3.214437
  H 2.873463 1.123090 -3.115077
  H 0.638203 1.061868 -2.065259
  H 0.638202 -0.695037 -2.164386
  H 0.818178 1.203830 -4.549588
  H -0.612850 0.293617 -4.067803
  H 0.818171 -0.556608 -4.648910
  H 5.186422 0.085457 -0.378580
  H 5.013357 0.257831 -3.433795
  H 7.098346 0.151623 -1.551196
 26
 101.206720
  C -0.036481 0.038173 0.459175
  C 2.689353 0.068702 -0.081851
  C 3.241719 -0.008321 1.283156
  H 2.457584 -0.050711 2.034372
  C 3.229766 0.136276 -1.279374
  C 2.544188 0.211543 -2.613289
  C 1.018676 0.210695 -2.598229
  C 0.461203 0.290545 -4.013333
  C 4.708968 0.140140 -1.347806
  C 5.447492 0.202712 -2.456831
  O 6.806498 0.204007 -2.479747
  H 0.091945 -0.021790 1.521786
  H -0.339654 -0.854942 -0.049963
  H -0.339651 0.982900 0.053747
  H 3.855595 0.868938 1.496948
  H 3.855596 -0.904058 1.396901
  H 2.889411 -0.636326 -3.211203
  H 2.889408 1.121289 -3.112026
  H 0.662605 1.064023 -2.017342
  H 0.662613 -0.702542 -2.117033
  H 0.794069 1.201921 -4.506631
  H -0.626140 0.289528 -3.995296
  H 0.794073 -0.559569 -4.606039
  H 5.224371 0.086654 -0.399814
  H 5.052552 0.259198 -3.457998
  H 7.150914 0.152985 -1.575368
 26
 107.499623
  C -0.165231 0.037234 0.475841
  C 2.718580 0.069029 -0.087640
  C 3.246564 -0.008073 1.278771
  H 2.449459 -0.049699 2.016465
  C 3.261670 0.136554 -1.284288
  C 2.562322 0.211889 -2.619433
  C 1.042690 0.209497 -2.577023
  C 0.457237 0.288762 -3.981762
  C 4.734394 0.140648 -1.356820
  C 5.466230 0.203408 -2.469142
  O 6.821007 0.205132 -2.499664
  H -0.023557 -0.022470 1.533841
  H -0.455603 -0.851256 -0.034732
  H -0.455600 0.977527 0.068467
  H 3.858090 0.870608 1.502546
  H 3.858094 -0.906350 1.402278
  H 2.899897 -0.637337 -3.223339
  H 2.899900 1.123664 -3.123976
  H 0.699076 1.058261 -1.990645
  H 0.699074 -0.699844 -2.089844
  H 0.779276 1.200252 -4.481399
  H -0.629456 0.286548 -3.942522
  H 0.779272 -0.560733 -4.580761
  H 5.253761 0.087020 -0.406300
  H 5.065319 0.259766 -3.468046
  H 7.167605 0.154585 -1.603739
 26
 112.214463
  C -0.297810 0.036712 0.485096
  C 2.744012 0.069757 -0.100543
  C 3.249632 -0.007967 1.276882
  H 2.439213 -0.048821 2.000895
  C 3.289003 0.137057 -1.293216
  C 2.579652 0.211938 -2.620303
  C 1.056926 0.208032 -2.551068
  C 0.444891 0.286631 -3.944011
  C 4.765200 0.141397 -1.370086
  C 5.493660 0.204354 -2.485901
  O 6.852459 0.206424 -2.522544
  H -0.139795 -0.022923 1.541884
  H -0.576883 -0.856234 -0.032263
  H -0.576879 0.982196 0.071479
  H 3.857133 0.869521 1.511522
  H 3.857137 -0.906282 1.411319
  H 2.909746 -0.635902 -3.227225
  H 2.909747 1.122666 -3.127992
  H 0.722463 1.058750 -1.955625
  H 0.722471 -0.704250 -2.055115
  H 0.756498 1.198569 -4.449609
  H -0.640859 0.283251 -3.884110
  H 0.756498 -0.562644 -4.548989
  H 5.284784 0.087936 -0.422548
  H 5.087704 0.260588 -3.482592
  H 7.206842 0.155517 -1.620255
 26
 115.547988
  C -0.432120 0.036001 0.497701
  C 2.768288 0.070118 -0.106954
  C 3.248224 -0.007781 1.273577
  H 2.423876 -0.047768 1.982230
  C 3.316651 0.137327 -1.298010
  C 2.595546 0.211925 -2.620070
  C 1.076393 0.206519 -2.524247
  C 0.438023 0.284424 -3.904872
  C 4.790576 0.141933 -1.379604
  C 5.513210 0.205097 -2.499061
  O 6.866815 0.207582 -2.543029
  H -0.261420 -0.023412 1.550568
  H -0.698856 -0.854564 -0.022578
  H -0.698851 0.979448 0.080916
  H 3.851950 0.869905 1.519176
  H 3.851948 -0.907518 1.418878
  H 2.918020 -0.636531 -3.231652
  H 2.918021 1.123786 -3.132318
  H 0.753159 1.054683 -1.922796
  H 0.753156 -0.703920 -2.022026
  H 0.738982 1.196664 -4.416224
  H -0.646328 0.279875 -3.824205
  H 0.738979 -0.564502 -4.515602
  H 5.313203 0.088443 -0.431548
  H 5.101518 0.261207 -3.493494
  H 7.221604 0.157333 -1.652429
 26
 117.818371
  C -0.568398 0.035212 0.511704
  C 2.790033 0.070560 -0.114784
  C 3.248374 -0.007836 1.274552
  H 2.411218 -0.047032 1.969187
  C 3.339625 0.137611 -1.303043
  C 2.606612 0.211877 -2.619232
  C 1.086816 0.205078 -2.498737
  C 0.424033 0.282344 -3.868049
  C 4.813947 0.142514 -1.389893
  C 5.531118 0.205844 -2.512305
  O 6.890151 0.208757 -2.563868
  H -0.383793 -0.024106 1.562867
  H -0.824853 -0.857893 -0.013915
  H -0.824847 0.981783 0.089898
  H 3.848159 0.869380 1.530748
  H 3.848162 -0.908305 1.430437
  H 2.921673 -0.635987 -3.234214
  H 2.921676 1.123536 -3.134927
  H 0.772647 1.053883 -1.890018
  H 0.772653 -0.706796 -1.989378
  H 0.715086 1.194907 -4.384564
  H -0.658751 0.276716 -3.768285
  H 0.715085 -0.566324 -4.483947
  H 5.338351 0.089153 -0.444137
  H 5.113017 0.261816 -3.504290
  H 7.255675 0.157940 -1.663189
 26
 119.233296
  C -0.709258 0.034525 0.523882
  C 2.808467 0.070711 -0.117450
  C 3.241351 -0.007865 1.275068
  H 2.390201 -0.046130 1.953219
  C 3.361367 0.137680 -1.304263
  C 2.616862 0.211554 -2.613508
  C 1.100117 0.203339 -2.467897
  C 0.413152 0.279895 -3.824598
  C 4.834467 0.142887 -1.396506
  C 5.546186 0.206463 -2.523259
  O 6.897701 0.209789 -2.582156
  H -0.514933 -0.024619 1.571962
  H -0.954404 -0.857235 -0.005126
  H -0.954398 0.980141 0.098557
  H 3.836555 0.869033 1.542489
  H 3.836558 -0.909280 1.442141
  H 2.924240 -0.636475 -3.232431
  H 2.924240 1.123820 -3.133099
  H 0.796113 1.050662 -1.853499
  H 0.796113 -0.707715 -1.952721
  H 0.694046 1.192730 -4.346118
  H -0.667573 0.273170 -3.705376
  H 0.694046 -0.568488 -4.445506
  H 5.361965 0.089560 -0.451351
  H 5.122694 0.262278 -3.512467
  H 7.261074 0.159918 -1.698256
