7

H 1.233058675206521 1.0911441420869192 0.12522241547040305
C 0.8469638572276573 0.0840048730263274 0.04751939873015455
O 1.6565940439199953 -0.8181541064899305 0.013848092475009623
C -0.6293165284142629 -0.07321467001032618 -0.008643119870718753
H -0.8949509105648608 -1.0299056126244668 -0.5211485747228545
H -1.1080587398569006 0.019585876504397467 0.9881234838202264
H -1.104290397518149 0.7265394975070828 -0.6449216959022227
