 16
 0.000000
  H 1.425645 0.196104 0.539650
  C 2.489935 0.136821 0.392292
  H 3.136021 0.458378 1.192926
  C 2.996346 -0.334019 -0.780440
  C 4.390709 -0.416802 -0.986617
  C 5.071208 -0.863465 -2.100519
  C 4.617681 -1.377702 -3.383170
  C 3.149426 -1.512461 -3.719659
  H 3.044697 -1.915093 -4.723904
  H 6.152784 -0.833362 -2.025160
  H 2.314958 -0.644460 -1.554136
  H 5.001673 -0.083814 -0.156249
  H 5.113888 -2.353811 -3.513217
  H 5.114241 -0.762131 -4.151552
  H 2.646048 -0.548304 -3.692270
  H 2.645904 -2.190577 -3.033840
 16
 10.923834
  H 1.385498 0.235745 0.638283
  C 2.447895 0.178145 0.495323
  H 3.096389 0.497330 1.290201
  C 3.014324 -0.347627 -0.814416
  C 4.394091 -0.424815 -1.006591
  C 5.080500 -0.871734 -2.121155
  C 4.630011 -1.386248 -3.404474
  C 3.160308 -1.521641 -3.742465
  H 3.056831 -1.924211 -4.746584
  H 6.161391 -0.839700 -2.041011
  H 2.329675 -0.655612 -1.582170
  H 5.000933 -0.090556 -0.172934
  H 5.128092 -2.360734 -3.535094
  H 5.128396 -0.772223 -4.172136
  H 2.656591 -0.557512 -3.716552
  H 2.656479 -2.200790 -3.057734
 16
 32.691627
  H 1.357014 0.268920 0.720395
  C 2.415225 0.217360 0.593206
  H 3.092366 0.523895 1.357347
  C 3.025921 -0.365551 -0.859376
  C 4.389211 -0.428894 -1.016817
  C 5.088284 -0.877265 -2.135072
  C 4.642961 -1.393730 -3.423136
  C 3.170692 -1.530310 -3.763841
  H 3.070926 -1.932981 -4.768188
  H 6.168117 -0.840437 -2.043051
  H 2.305304 -0.657705 -1.588312
  H 4.990456 -0.093781 -0.180718
  H 5.144713 -2.365749 -3.555799
  H 5.144910 -0.782844 -4.190612
  H 2.667780 -0.565694 -3.743870
  H 2.667727 -2.213972 -3.082997
 16
 57.097141
  H 1.308911 0.300403 0.798930
  C 2.373422 0.253143 0.682471
  H 3.067785 0.557457 1.441516
  C 3.040214 -0.385188 -0.908585
  C 4.397213 -0.441621 -1.048688
  C 5.097986 -0.886443 -2.158049
  C 4.655641 -1.398688 -3.435454
  C 3.184032 -1.531995 -3.767941
  H 3.078041 -1.934656 -4.772087
  H 6.176897 -0.848007 -2.061961
  H 2.298834 -0.673059 -1.627120
  H 4.994497 -0.105761 -0.210589
  H 5.156541 -2.370589 -3.568734
  H 5.156744 -0.788388 -4.203372
  H 2.684551 -0.566351 -3.745536
  H 2.684531 -2.214601 -3.084584
 16
 80.774046
  H 1.271526 0.345833 0.912199
  C 2.331818 0.301491 0.803016
  H 3.041038 0.597683 1.542173
  C 3.042855 -0.394012 -0.930718
  C 4.391247 -0.444870 -1.056864
  C 5.109715 -0.894747 -2.178818
  C 4.672466 -1.411514 -3.467411
  C 3.199938 -1.547629 -3.806878
  H 3.098132 -1.950550 -4.811547
  H 6.189228 -0.852898 -2.074213
  H 2.282485 -0.671182 -1.622746
  H 4.984865 -0.107804 -0.215709
  H 5.176806 -2.382938 -3.598745
  H 5.176997 -0.800284 -4.233616
  H 2.699530 -0.581918 -3.787179
  H 2.699480 -2.232103 -3.125354
 16
 101.421564
  H 1.239884 0.370878 0.974556
  C 2.303628 0.333754 0.883323
  H 3.050419 0.618212 1.593350
  C 3.048186 -0.420564 -0.996610
  C 4.379329 -0.457447 -1.088129
  C 5.120932 -0.902798 -2.198866
  C 4.692034 -1.417286 -3.481784
  C 3.217019 -1.547057 -3.805500
  H 3.098852 -1.949452 -4.808754
  H 6.197946 -0.854267 -2.077679
  H 2.238894 -0.678518 -1.640579
  H 4.960446 -0.117158 -0.239118
  H 5.192939 -2.390562 -3.608413
  H 5.193163 -0.801517 -4.245940
  H 2.723914 -0.578359 -3.777463
  H 2.723818 -2.227798 -3.115884
 16
 119.443590
  H 1.203929 0.412130 1.077281
  C 2.265185 0.376573 0.990001
  H 3.024851 0.654139 1.682787
  C 3.048576 -0.435728 -1.034142
  C 4.380372 -0.467692 -1.113602
  C 5.131542 -0.909696 -2.216032
  C 4.707863 -1.425120 -3.501314
  C 3.232545 -1.555822 -3.827438
  H 3.115165 -1.958068 -4.830340
  H 6.206215 -0.857464 -2.085650
  H 2.219968 -0.683030 -1.651320
  H 4.956065 -0.126305 -0.262036
  H 5.210610 -2.396930 -3.627925
  H 5.210859 -0.810416 -4.264446
  H 2.739686 -0.586627 -3.800169
  H 2.739513 -2.237467 -3.138012
 16
 134.560065
  H 1.162616 0.453452 1.180917
  C 2.227187 0.418951 1.096318
  H 3.003384 0.692258 1.778778
  C 3.048974 -0.450687 -1.072329
  C 4.375810 -0.477457 -1.138756
  C 5.143238 -0.918237 -2.237590
  C 4.724863 -1.433704 -3.522462
  C 3.251085 -1.563402 -3.846312
  H 3.130932 -1.965810 -4.849100
  H 6.217006 -0.862391 -2.097898
  H 2.197311 -0.688301 -1.665257
  H 4.944745 -0.134091 -0.282250
  H 5.228386 -2.405527 -3.649353
  H 5.228825 -0.819585 -4.286011
  H 2.760156 -0.593509 -3.818072
  H 2.759812 -2.244506 -3.155505
 16
 146.564027
  H 1.126741 0.495797 1.286188
  C 2.189780 0.461200 1.201256
  H 2.974004 0.730376 1.872806
  C 3.049816 -0.466794 -1.111434
  C 4.373044 -0.488488 -1.165697
  C 5.155678 -0.925579 -2.255677
  C 4.742404 -1.441755 -3.542654
  C 3.267701 -1.570641 -3.864580
  H 3.144149 -1.972813 -4.867083
  H 6.227014 -0.865586 -2.105775
  H 2.181448 -0.694357 -1.678835
  H 4.934047 -0.143094 -0.304462
  H 5.246470 -2.413525 -3.669699
  H 5.246899 -0.827637 -4.306177
  H 2.778325 -0.599766 -3.834751
  H 2.777987 -2.251517 -3.172082
 16
 155.723694
  H 1.088522 0.540052 1.396088
  C 2.153549 0.503660 1.306588
  H 2.947013 0.770899 1.972764
  C 3.048789 -0.483086 -1.151003
  C 4.366691 -0.499775 -1.193203
  C 5.168475 -0.933418 -2.275022
  C 4.760994 -1.450122 -3.563710
  C 3.286813 -1.577533 -3.881910
  H 3.158596 -1.979360 -4.883919
  H 6.237706 -0.868959 -2.114122
  H 2.161065 -0.700840 -1.693637
  H 4.918547 -0.151809 -0.325738
  H 5.264777 -2.421919 -3.690725
  H 5.265140 -0.835755 -4.327104
  H 2.799654 -0.605686 -3.849799
  H 2.799407 -2.257748 -3.187267
 16
 162.259998
  H 1.052177 0.586230 1.511024
  C 2.116858 0.545830 1.411522
  H 2.911881 0.812701 2.076482
  C 3.047706 -0.499208 -1.190901
  C 4.362346 -0.511607 -1.222515
  C 5.182119 -0.940678 -2.293138
  C 4.780136 -1.458039 -3.583565
  C 3.304867 -1.583956 -3.897929
  H 3.171432 -1.985575 -4.899508
  H 6.248779 -0.871916 -2.121511
  H 2.145984 -0.707635 -1.710278
  H 4.904233 -0.161119 -0.348629
  H 5.283351 -2.430274 -3.710167
  H 5.283665 -0.843003 -4.346926
  H 2.819765 -0.610935 -3.863401
  H 2.819582 -2.263448 -3.200759
 16
 166.219887
  H 1.011824 0.638784 1.642272
  C 2.078726 0.589756 1.521555
  H 2.868771 0.861344 2.198669
  C 3.045233 -0.512822 -1.225891
  C 4.358558 -0.523470 -1.252760
  C 5.194553 -0.948749 -2.313592
  C 4.799339 -1.466069 -3.603429
  C 3.324778 -1.591796 -3.917233
  H 3.189314 -1.993445 -4.918423
  H 6.259686 -0.876511 -2.133102
  H 2.133255 -0.715194 -1.730606
  H 4.891240 -0.170522 -0.372443
  H 5.302687 -2.438210 -3.728347
  H 5.303049 -0.850189 -4.365677
  H 2.840482 -0.618502 -3.881548
  H 2.840259 -2.270483 -3.218802
 16
 167.854204
  H 0.973266 0.695749 1.784534
  C 2.039731 0.634859 1.634616
  H 2.814972 0.914149 2.331613
  C 3.043968 -0.524950 -1.257179
  C 4.357138 -0.534871 -1.281876
  C 5.206222 -0.955925 -2.331778
  C 4.817836 -1.473701 -3.622196
  C 3.344051 -1.600399 -3.938410
  H 3.208954 -2.002270 -4.939636
  H 6.269567 -0.880560 -2.143346
  H 2.126391 -0.723627 -1.753136
  H 4.880504 -0.179547 -0.395550
  H 5.322383 -2.445824 -3.744908
  H 5.322809 -0.856605 -4.383001
  H 2.859334 -0.627168 -3.902450
  H 2.859052 -2.278544 -3.239614
 16
 167.856357
  H 0.934851 0.754694 1.931235
  C 2.000058 0.680891 1.749475
  H 2.756913 0.969433 2.469664
  C 3.043222 -0.536584 -1.286037
  C 4.355550 -0.545434 -1.307957
  C 5.217613 -0.962595 -2.348359
  C 4.835882 -1.480475 -3.639102
  C 3.363501 -1.608255 -3.957879
  H 3.229180 -2.010090 -4.959079
  H 6.279357 -0.884213 -2.152462
  H 2.120794 -0.732509 -1.775553
  H 4.869201 -0.187665 -0.415353
  H 5.341809 -2.452071 -3.759897
  H 5.342167 -0.862306 -4.398117
  H 2.878171 -0.635303 -3.921562
  H 2.877972 -2.286050 -3.259033
