 17
 0.000000
  C 1.007849 -0.071122 0.048436
  C 2.503790 -0.082479 0.026143
  C 3.220123 -0.594500 -0.979043
  C 4.656567 -0.606247 -1.002102
  C 5.378016 -1.121376 -2.013385
  C 6.815253 -1.131957 -2.034154
  C 7.531026 -1.641564 -3.034605
  H 8.603893 -1.654055 -3.059123
  H 0.643901 0.394392 0.962312
  H 0.612957 -1.085544 0.007195
  H 0.612959 0.491958 -0.796370
  H 3.004767 0.352515 0.880110
  H 2.709807 -1.027873 -1.829816
  H 5.161204 -0.171581 -0.148783
  H 4.874083 -1.556106 -2.866833
  H 7.321133 -0.697449 -1.181143
  H 7.035395 -2.077418 -3.890246
 17
 10.672752
  C 0.936611 -0.052651 0.084698
  C 2.432738 -0.076757 0.037376
  C 3.122001 -0.590213 -0.970627
  C 4.687547 -0.611911 -1.013223
  C 5.375601 -1.125482 -2.021445
  C 6.943144 -1.145702 -2.061134
  C 7.631524 -1.657270 -3.065435
  H 8.706663 -1.674672 -3.099600
  H 0.589499 0.415140 1.003041
  H 0.533270 -1.063713 0.046662
  H 0.533270 0.511044 -0.755504
  H 2.952249 0.353930 0.882886
  H 2.607373 -1.020772 -1.815878
  H 5.197540 -0.180168 -0.165642
  H 4.866679 -1.557344 -2.869263
  H 7.452486 -0.713712 -1.213067
  H 7.124929 -2.090019 -3.914988
 17
 33.889248
  C 0.878168 -0.033287 0.122728
  C 2.371583 -0.074423 0.041955
  C 3.022758 -0.590562 -0.971323
  C 4.716557 -0.613688 -1.016710
  C 5.365396 -1.134369 -2.038900
  C 7.064972 -1.155897 -2.081149
  C 7.715709 -1.672099 -3.094594
  H 8.793158 -1.692626 -3.134803
  H 0.557906 0.437978 1.047896
  H 0.462558 -1.039361 0.093325
  H 0.462538 0.534469 -0.708378
  H 2.912409 0.349423 0.874034
  H 2.533686 -1.025782 -1.825718
  H 5.200333 -0.177704 -0.160808
  H 4.883434 -1.570565 -2.895258
  H 7.547246 -0.718933 -1.223318
  H 7.202761 -2.101189 -3.936874
 17
 61.381115
  C 0.832494 -0.010422 0.167603
  C 2.316512 -0.074176 0.042454
  C 2.927273 -0.599029 -0.987915
  C 4.747739 -0.618247 -1.025613
  C 5.341180 -1.140990 -2.051865
  C 7.174958 -1.158786 -2.086848
  C 7.788949 -1.686520 -3.122909
  H 8.869884 -1.713314 -3.175465
  H 0.544926 0.463899 1.098762
  H 0.404371 -1.009553 0.142315
  H 0.404351 0.556600 -0.655494
  H 2.881219 0.340149 0.855848
  H 2.486659 -1.044729 -1.862888
  H 5.178194 -0.172957 -0.151450
  H 4.914183 -1.586637 -2.926750
  H 7.607338 -0.710566 -1.206912
  H 7.267955 -2.109385 -3.952998
 17
 90.449500
  C 0.758318 0.012042 0.211708
  C 2.248158 -0.069285 0.052040
  C 2.832527 -0.600556 -0.990929
  C 4.777866 -0.624149 -1.037249
  C 5.337132 -1.148573 -2.066787
  C 7.306004 -1.170663 -2.110114
  C 7.889365 -1.699408 -3.148142
  H 8.968722 -1.736503 -3.220998
  H 0.498050 0.489744 1.149494
  H 0.318647 -0.982029 0.194769
  H 0.318632 0.582809 -0.602358
  H 2.834561 0.341121 0.857721
  H 2.413727 -1.048321 -1.869946
  H 5.179099 -0.175067 -0.155634
  H 4.940759 -1.598246 -2.949566
  H 7.715553 -0.721056 -1.227458
  H 7.348872 -2.120009 -3.973894
 17
 117.634181
  C 0.677552 0.033385 0.253607
  C 2.166693 -0.059654 0.070953
  C 2.731550 -0.594715 -0.979456
  C 4.804333 -0.628060 -1.044916
  C 5.340593 -1.154487 -2.078388
  C 7.441202 -1.186218 -2.140670
  C 8.005246 -1.718294 -3.185238
  H 9.086191 -1.763194 -3.273390
  H 0.435543 0.513956 1.197029
  H 0.229404 -0.959288 0.243227
  H 0.229384 0.608647 -0.555483
  H 2.767215 0.346743 0.868770
  H 2.312125 -1.042344 -1.858212
  H 5.201938 -0.178438 -0.162238
  H 4.948260 -1.604880 -2.962582
  H 7.851083 -0.736636 -1.258059
  H 7.451666 -2.135433 -4.004163
 17
 140.836765
  C 0.610621 0.054841 0.295731
  C 2.102707 -0.057524 0.075124
  C 2.639624 -0.596309 -0.982600
  C 4.831740 -0.633687 -1.055981
  C 5.323545 -1.159658 -2.088552
  C 7.564768 -1.194610 -2.157120
  C 8.103719 -1.730471 -3.209121
  H 9.184757 -1.789273 -3.324592
  H 0.399560 0.540092 1.248338
  H 0.149809 -0.935566 0.296749
  H 0.149791 0.637978 -0.504809
  H 2.724745 0.345402 0.866124
  H 2.243383 -1.044794 -1.863029
  H 5.184076 -0.179084 -0.163523
  H 4.977982 -1.615346 -2.983138
  H 7.950112 -0.744290 -1.273077
  H 7.528995 -2.145129 -4.023208
 17
 158.986381
  C 0.547682 0.076051 0.337376
  C 2.032173 -0.052644 0.084702
  C 2.546830 -0.594455 -0.978965
  C 4.853688 -0.639324 -1.067054
  C 5.301430 -1.165035 -2.099126
  C 7.687349 -1.205477 -2.178457
  C 8.207359 -1.743630 -3.234961
  H 9.286202 -1.815367 -3.375792
  H 0.364822 0.562625 1.292582
  H 0.078816 -0.907844 0.348463
  H 0.078792 0.663500 -0.451977
  H 2.667491 0.344707 0.864754
  H 2.161875 -1.043563 -1.860619
  H 5.163694 -0.181169 -0.167626
  H 5.000591 -1.624363 -3.000865
  H 8.059310 -0.753949 -1.292031
  H 7.618765 -2.152902 -4.038450
 17
 172.544585
  C 0.469658 0.098004 0.380478
  C 1.953064 -0.043290 0.103066
  C 2.449429 -0.587502 -0.965317
  C 4.878167 -0.643551 -1.075358
  C 5.296239 -1.170208 -2.109289
  C 7.818820 -1.220679 -2.208301
  C 8.322587 -1.761237 -3.269528
  H 9.400334 -1.841355 -3.426800
  H 0.306304 0.586534 1.339524
  H -0.007021 -0.883388 0.398893
  H -0.007050 0.689910 -0.402545
  H 2.602089 0.350195 0.875526
  H 2.063398 -1.038659 -1.850995
  H 5.173223 -0.181728 -0.168725
  H 5.011574 -1.633334 -3.018485
  H 8.190331 -0.767029 -1.317707
  H 7.721375 -2.167676 -4.067452
 17
 180.948561
  C 0.399308 0.119749 0.423157
  C 1.883501 -0.037343 0.114737
  C 2.363612 -0.582272 -0.955047
  C 4.904533 -0.649045 -1.086143
  C 5.270106 -1.174788 -2.118270
  C 7.939063 -1.233419 -2.233274
  C 8.431669 -1.774793 -3.296115
  H 9.505061 -1.866389 -3.476007
  H 0.260726 0.608442 1.382505
  H -0.084198 -0.854462 0.451206
  H -0.084208 0.715206 -0.348375
  H 2.546603 0.352500 0.880038
  H 1.979634 -1.035606 -1.844994
  H 5.153335 -0.181014 -0.167330
  H 5.033108 -1.643910 -3.039248
  H 8.306168 -0.777738 -1.338704
  H 7.815227 -2.179060 -4.089817
 17
 186.508198
  C 0.323010 0.141392 0.465648
  C 1.798729 -0.025717 0.137566
  C 2.264706 -0.573434 -0.937691
  C 4.928028 -0.652077 -1.092092
  C 5.263961 -1.180037 -2.128573
  C 8.068438 -1.249529 -2.264899
  C 8.548313 -1.793036 -3.331931
  H 9.620699 -1.891673 -3.525663
  H 0.201504 0.631767 1.428303
  H -0.166366 -0.831238 0.499827
  H -0.166389 0.740894 -0.301021
  H 2.470494 0.359503 0.893797
  H 1.882478 -1.024201 -1.822599
  H 5.157762 -0.186050 -0.177212
  H 5.046183 -1.647248 -3.045801
  H 8.433799 -0.795645 -1.373858
  H 7.924729 -2.192552 -4.116297
 17
 189.620366
  C 0.244120 0.163312 0.508674
  C 1.715303 -0.014206 0.160164
  C 2.167233 -0.563621 -0.918427
  C 4.952810 -0.655311 -1.098440
  C 5.257932 -1.183888 -2.136133
  C 8.197472 -1.265705 -2.296654
  C 8.665062 -1.810894 -3.366992
  H 9.734823 -1.916633 -3.574680
  H 0.139439 0.654274 1.472481
  H -0.250708 -0.805997 0.549261
  H -0.250724 0.766041 -0.251534
  H 2.398890 0.367949 0.910378
  H 1.783486 -1.014712 -1.803974
  H 5.165333 -0.186024 -0.177162
  H 5.057307 -1.654220 -3.059492
  H 8.563885 -0.811771 -1.405515
  H 8.030104 -2.208102 -4.146815
 17
 191.030716
  C 0.164089 0.185927 0.553070
  C 1.630598 -0.001874 0.184374
  C 2.068859 -0.553175 -0.897917
  C 4.977321 -0.657825 -1.103376
  C 5.252715 -1.187954 -2.144115
  C 8.326410 -1.282309 -2.329248
  C 8.781661 -1.829311 -3.403145
  H 9.848522 -1.941834 -3.624172
  H 0.075842 0.677458 1.517992
  H -0.336021 -0.779988 0.599898
  H -0.336038 0.791712 -0.200727
  H 2.324162 0.376084 0.926351
  H 1.685372 -1.004004 -1.782954
  H 5.170890 -0.188876 -0.182761
  H 5.070504 -1.657853 -3.066627
  H 8.692918 -0.828399 -1.438158
  H 8.137507 -2.222966 -4.175988
 17
 191.427604
  C 0.084571 0.208678 0.597732
  C 1.544862 0.011120 0.209883
  C 1.969452 -0.541958 -0.875899
  C 5.001026 -0.659906 -1.107470
  C 5.246963 -1.191225 -2.150546
  C 8.454202 -1.298660 -2.361347
  C 8.896988 -1.847398 -3.438657
  H 9.960911 -1.966472 -3.672546
  H 0.012408 0.700642 1.563508
  H -0.420601 -0.754134 0.650646
  H -0.420617 0.817562 -0.149974
  H 2.249010 0.385373 0.944589
  H 1.586869 -0.992491 -1.760359
  H 5.176561 -0.188794 -0.182606
  H 5.082149 -1.663128 -3.076993
  H 8.820083 -0.845229 -1.471200
  H 8.242939 -2.237995 -4.205476
