 28
 0.000000
  C 0.971129 0.143658 0.410584
  C 2.444347 0.141601 0.404078
  C 3.237624 0.607265 1.561534
  C 2.468798 1.097797 2.782587
  H 3.156175 1.409987 3.558585
  C 3.049619 -0.325716 -0.758969
  C 4.429860 -0.415287 -0.982689
  C 5.091795 -0.863585 -2.100294
  C 4.613070 -1.382379 -3.394273
  C 3.127721 -1.507009 -3.706748
  C 2.923797 -2.070251 -5.111632
  H 6.172488 -0.852899 -2.073406
  H 0.540529 0.513978 1.331945
  H 0.599398 -0.867855 0.240259
  H 0.598623 0.755405 -0.412439
  H 3.896017 1.414589 1.221118
  H 3.896716 -0.210523 1.874467
  H 1.835832 0.307646 3.182036
  H 1.835201 1.944166 2.524236
  H 2.372981 -0.638209 -1.536124
  H 5.058997 -0.086817 -0.164563
  H 5.078772 -2.369015 -3.518293
  H 5.079574 -0.755291 -4.165566
  H 2.648175 -0.528312 -3.658325
  H 2.647393 -2.180722 -2.995736
  H 3.369220 -1.420994 -5.861942
  H 1.862368 -2.157386 -5.330201
  H 3.368494 -3.058370 -5.205390
 28
 -0.294404
  C 0.970774 0.007824 0.480316
  C 2.441006 0.068948 0.423395
  C 3.227724 0.679780 1.514693
  C 2.458330 1.207015 2.718831
  H 3.157769 1.602216 3.447846
  C 3.045462 -0.461075 -0.714293
  C 4.423412 -0.586158 -0.922616
  C 5.078457 -0.993732 -2.059044
  C 4.613698 -1.408989 -3.386473
  C 3.132536 -1.462909 -3.729774
  C 2.930169 -1.919382 -5.172590
  H 6.159326 -1.008996 -1.988329
  H 0.553473 0.700268 1.198400
  H 0.664996 -0.999890 0.768160
  H 0.533688 0.198249 -0.497250
  H 3.823175 1.494263 1.089648
  H 3.955904 -0.059675 1.863747
  H 1.881068 0.420266 3.196051
  H 1.782214 2.011603 2.440626
  H 2.357829 -0.794147 -1.472606
  H 5.059841 -0.334241 -0.085448
  H 5.057900 -2.396242 -3.573212
  H 5.124246 -0.758243 -4.109627
  H 2.687105 -0.474275 -3.614116
  H 2.621617 -2.167388 -3.073112
  H 3.409362 -1.236480 -5.869584
  H 1.871133 -1.954150 -5.412770
  H 3.342900 -2.912653 -5.329973
 28
 0.010548
  C 0.980943 -0.187408 0.571457
  C 2.441708 -0.070844 0.442092
  C 3.217857 0.747271 1.396720
  C 2.446823 1.369805 2.550901
  H 3.136847 1.898417 3.201939
  C 3.045611 -0.717468 -0.629976
  C 4.427174 -0.860519 -0.831909
  C 5.088126 -1.180655 -1.987958
  C 4.623053 -1.429268 -3.356929
  C 3.140758 -1.408451 -3.699014
  C 2.925951 -1.667694 -5.187622
  H 6.166728 -1.230484 -1.905059
  H 0.538450 0.724090 0.955653
  H 0.748234 -0.979414 1.286232
  H 0.506439 -0.444114 -0.371051
  H 3.726257 1.537889 0.836153
  H 4.023073 0.124912 1.801604
  H 1.936441 0.613944 3.141062
  H 1.711531 2.089944 2.200689
  H 2.345139 -1.139508 -1.329928
  H 5.053970 -0.697373 0.034859
  H 5.045690 -2.397558 -3.658467
  H 5.151084 -0.711712 -4.000147
  H 2.716128 -0.435750 -3.448004
  H 2.617842 -2.182489 -3.136982
  H 3.418857 -0.909525 -5.791206
  H 1.865972 -1.649331 -5.426102
  H 3.318185 -2.639979 -5.475410
 28
 1.968053
  C 0.996976 -0.401517 0.642452
  C 2.442460 -0.253911 0.418426
  C 3.205259 0.802100 1.117288
  C 2.449044 1.594166 2.171686
  H 3.128157 2.285035 2.664483
  C 3.055210 -1.078828 -0.508882
  C 4.448574 -1.212855 -0.705418
  C 5.123914 -1.384694 -1.877147
  C 4.641802 -1.384451 -3.265228
  C 3.149570 -1.304943 -3.548217
  C 2.883185 -1.240443 -5.049062
  H 6.201431 -1.461930 -1.800837
  H 0.506393 0.565814 0.689968
  H 0.829678 -0.881478 1.609111
  H 0.517132 -1.003193 -0.123928
  H 3.607328 1.492729 0.367894
  H 4.089507 0.338163 1.570476
  H 2.023809 0.938949 2.927286
  H 1.646000 2.181945 1.733396
  H 2.363824 -1.677947 -1.080658
  H 5.054110 -1.156148 0.192389
  H 5.053094 -2.282303 -3.745749
  H 5.153919 -0.558907 -3.778749
  H 2.732552 -0.413166 -3.074872
  H 2.645801 -2.183035 -3.143749
  H 3.360783 -0.370095 -5.493587
  H 1.815768 -1.174436 -5.243272
  H 3.261389 -2.128836 -5.549945
 28
 7.505810
  C 1.026383 -0.551268 0.612219
  C 2.462022 -0.389547 0.340694
  C 3.203364 0.775104 0.844847
  C 2.446590 1.697779 1.779083
  H 3.108056 2.496332 2.119040
  C 3.088919 -1.340221 -0.436573
  C 4.491769 -1.511319 -0.629789
  C 5.176039 -1.529675 -1.793762
  C 4.662239 -1.321728 -3.151709
  C 3.157218 -1.205743 -3.333606
  C 2.800432 -0.920277 -4.790282
  H 6.252934 -1.614201 -1.742766
  H 0.497118 0.389751 0.467700
  H 0.881242 -0.870367 1.648767
  H 0.560843 -1.295554 -0.045590
  H 3.574414 1.353358 -0.014316
  H 4.110211 0.393718 1.347281
  H 2.073128 1.167261 2.658443
  H 1.616095 2.156304 1.272342
  H 2.360447 -2.060499 -0.789812
  H 5.065043 -1.538859 0.285725
  H 5.058029 -2.133755 -3.778670
  H 5.143889 -0.414168 -3.542596
  H 2.760670 -0.402638 -2.695979
  H 2.687779 -2.142450 -3.042174
  H 3.261526 0.000980 -5.131785
  H 1.724507 -0.813405 -4.903726
  H 3.135761 -1.729131 -5.437449
 28
 15.704530
  C 1.136435 -0.730407 0.622676
  C 2.560547 -0.484796 0.377816
  C 3.211215 0.806091 0.714150
  C 2.357778 1.759718 1.533053
  H 2.963602 2.603870 1.851991
  C 3.216136 -1.472748 -0.310480
  C 4.590937 -1.673541 -0.586525
  C 5.220741 -1.614370 -1.778634
  C 4.653073 -1.253897 -3.107968
  C 3.136490 -1.146859 -3.232664
  C 2.701478 -0.734298 -4.638004
  H 6.299046 -1.688298 -1.770428
  H 0.589614 0.186295 0.459406
  H 0.958444 -1.047001 1.645873
  H 0.684084 -1.434273 -0.069022
  H 3.556773 1.289633 -0.199788
  H 4.092564 0.539991 1.300520
  H 1.969753 1.270067 2.422828
  H 1.519826 2.150251 0.959336
  H 2.390355 -2.105010 -0.621239
  H 5.210670 -1.807004 0.280062
  H 4.985083 -2.050017 -3.793863
  H 5.146551 -0.345987 -3.478408
  H 2.777666 -0.391856 -2.520782
  H 2.660453 -2.087289 -2.956992
  H 3.167928 0.209365 -4.928808
  H 1.621048 -0.615186 -4.688943
  H 2.998484 -1.485818 -5.367921
 28
 32.924479
  C 1.265254 -0.863481 0.615728
  C 2.673234 -0.402816 0.399309
  C 3.141372 0.930307 0.898625
  C 2.113091 1.731462 1.692029
  H 2.585668 2.652346 2.027648
  C 3.448130 -1.269165 -0.329348
  C 4.781799 -1.525813 -0.678933
  C 5.293261 -1.617346 -1.939390
  C 4.617365 -1.420080 -3.245183
  C 3.145371 -1.034035 -3.237725
  C 2.663399 -0.734659 -4.659186
  H 6.342173 -1.849488 -2.008426
  H 0.614536 -0.068594 0.370003
  H 1.107520 -1.169215 1.645810
  H 0.893217 -1.635981 -0.061280
  H 3.456189 1.528999 0.036875
  H 4.047955 0.772500 1.495783
  H 1.782894 1.196237 2.573172
  H 1.267744 2.021687 1.075422
  H 2.541896 -1.878969 -0.542445
  H 5.420827 -1.811379 0.135400
  H 4.806479 -2.284072 -3.886329
  H 5.169692 -0.590115 -3.712309
  H 2.982268 -0.164264 -2.596089
  H 2.568891 -1.890223 -2.886603
  H 3.207624 0.106677 -5.090366
  H 1.606694 -0.483289 -4.658613
  H 2.801970 -1.596850 -5.306909
 28
 62.214027
  C 1.428499 -1.050677 0.647856
  C 2.791344 -0.430560 0.380394
  C 3.083663 1.001775 0.760104
  C 1.984026 1.665715 1.576689
  H 2.314791 2.657213 1.878344
  C 3.619371 -1.223663 -0.281921
  C 4.888470 -1.569905 -0.716353
  C 5.342468 -1.645453 -1.999619
  C 4.638145 -1.308177 -3.252026
  C 3.171199 -0.905374 -3.153045
  C 2.590987 -0.623484 -4.535779
  H 6.367896 -1.959341 -2.139945
  H 0.698243 -0.282679 0.482790
  H 1.361312 -1.423382 1.669539
  H 0.994484 -1.814148 -0.036508
  H 3.256032 1.578443 -0.152130
  H 4.016733 1.012994 1.328469
  H 1.763641 1.102039 2.478931
  H 1.072099 1.794614 0.999109
  H 2.396706 -1.889139 -0.279030
  H 5.564541 -1.912679 0.062146
  H 4.717987 -2.182140 -3.912001
  H 5.209116 -0.525335 -3.765524
  H 3.076019 -0.013864 -2.533959
  H 2.611401 -1.726294 -2.704611
  H 3.129092 0.185335 -5.025546
  H 1.545208 -0.336749 -4.461656
  H 2.655748 -1.504630 -5.170560
 28
 71.366096
  C 1.474170 -1.095330 0.611055
  C 2.842276 -0.423873 0.365648
  C 3.077613 1.013344 0.780031
  C 1.938440 1.628040 1.582277
  H 2.232833 2.622489 1.910306
  C 3.707135 -1.167054 -0.280962
  C 4.945814 -1.518069 -0.738249
  C 5.376219 -1.625896 -2.033423
  C 4.640206 -1.319310 -3.285867
  C 3.184668 -0.887986 -3.148049
  C 2.565371 -0.598512 -4.511438
  H 6.398457 -1.942763 -2.187610
  H 0.709807 -0.330277 0.437091
  H 1.404425 -1.443510 1.644565
  H 0.994057 -1.884198 -0.064244
  H 3.259091 1.614465 -0.114572
  H 3.995170 1.047216 1.372528
  H 1.716080 1.043306 2.470713
  H 1.037618 1.744462 0.984936
  H 2.179920 -1.912914 -0.137996
  H 5.642108 -1.843908 0.030783
  H 4.695631 -2.202874 -3.934067
  H 5.201862 -0.539865 -3.816555
  H 3.128199 0.009310 -2.532202
  H 2.621580 -1.689909 -2.671458
  H 3.102820 0.199984 -5.018895
  H 1.527794 -0.292133 -4.405673
  H 2.596790 -1.481413 -5.146819
 28
 68.386412
  C 1.446892 -1.107622 0.639304
  C 2.844048 -0.474429 0.341001
  C 3.063661 0.976649 0.741094
  C 1.933647 1.609335 1.544673
  H 2.239362 2.607569 1.850862
  C 3.752382 -1.167026 -0.285044
  C 4.979052 -1.510600 -0.746762
  C 5.412007 -1.612021 -2.047513
  C 4.671146 -1.300556 -3.298570
  C 3.215839 -0.873820 -3.146079
  C 2.580898 -0.582479 -4.501619
  H 6.434363 -1.927515 -2.203321
  H 0.750472 -0.277521 0.457601
  H 1.408130 -1.392974 1.693780
  H 0.733315 -1.825894 0.056011
  H 3.237338 1.566421 -0.162866
  H 3.984807 1.022491 1.326647
  H 1.718504 1.044571 2.447434
  H 1.026842 1.726116 0.955983
  H 1.870863 -1.982141 -0.009064
  H 5.680516 -1.835547 0.017958
  H 4.722627 -2.181914 -3.950770
  H 5.226126 -0.516464 -3.830310
  H 3.165034 0.021039 -2.526298
  H 2.663254 -1.679117 -2.663373
  H 3.111599 0.218710 -5.012179
  H 1.543613 -0.279303 -4.384885
  H 2.609050 -1.463712 -5.139505
 28
 64.556817
  C 1.528713 -1.181994 0.702855
  C 2.869724 -0.504148 0.324599
  C 3.006130 0.981230 0.639617
  C 1.869131 1.586466 1.457253
  H 2.122290 2.616382 1.693878
  C 3.833264 -1.151961 -0.253821
  C 5.011657 -1.570253 -0.748630
  C 5.410096 -1.694438 -2.066153
  C 4.667788 -1.324684 -3.301006
  C 3.246555 -0.803235 -3.116317
  C 2.605542 -0.458278 -4.457987
  H 6.404081 -2.081245 -2.243673
  H 0.817587 -0.374893 0.444477
  H 1.424842 -1.305180 1.784594
  H 0.759338 -1.747897 0.042089
  H 3.099814 1.529171 -0.301962
  H 3.944461 1.127115 1.176110
  H 1.728284 1.066126 2.399693
  H 0.931629 1.616806 0.903124
  H 1.860015 -2.235597 0.396244
  H 5.720524 -1.919524 -0.004152
  H 4.648023 -2.201647 -3.961111
  H 5.261872 -0.572126 -3.838022
  H 3.270311 0.088527 -2.488524
  H 2.650849 -1.571204 -2.622778
  H 3.181116 0.309205 -4.974832
  H 1.590764 -0.084018 -4.318367
  H 2.560985 -1.336457 -5.103007
 28
 59.155391
  C 1.396889 -1.161241 0.543076
  C 2.711901 -0.447463 0.214211
  C 2.736010 1.055748 0.433482
  C 2.160400 1.491807 1.781017
  H 2.374838 2.547912 1.933843
  C 3.738311 -1.068324 -0.281279
  C 4.936336 -1.517116 -0.696089
  C 5.411305 -1.668697 -1.983067
  C 4.742675 -1.324297 -3.264087
  C 3.297312 -0.843389 -3.171985
  C 2.724338 -0.550474 -4.553938
  H 6.413307 -2.067402 -2.094954
  H 0.589038 -0.388513 0.643038
  H 1.274855 -1.268041 1.651628
  H 0.828072 -1.396333 -0.395732
  H 2.187148 1.544630 -0.378432
  H 3.769653 1.394809 0.364673
  H 2.627371 0.946406 2.597607
  H 1.080428 1.380349 1.835974
  H 1.581665 -2.267882 0.544453
  H 5.606436 -1.842298 0.097075
  H 4.789452 -2.204866 -3.919142
  H 5.345684 -0.558401 -3.765317
  H 3.258731 0.062854 -2.565549
  H 2.699412 -1.620282 -2.692590
  H 3.305471 0.219614 -5.055942
  H 1.696734 -0.204924 -4.482194
  H 2.741613 -1.441941 -5.175591
