 19
 0.000000
  H 1.515255 0.144215 0.410252
  C 2.599939 0.133919 0.384193
  C 3.291683 0.615187 1.580934
  C 2.360942 1.062737 2.695957
  H 2.932519 1.407892 3.554905
  C 3.195486 -0.330185 -0.770967
  C 4.584532 -0.411714 -0.974795
  C 5.184876 -0.874330 -2.127643
  C 4.533094 -1.356925 -3.331649
  H 3.449443 -1.339981 -3.291385
  H 6.268929 -0.882722 -2.147665
  H 3.964724 1.438467 1.306154
  H 3.965428 -0.168755 1.952032
  H 1.721017 0.245778 3.020405
  H 1.720404 1.876710 2.365363
  H 2.542020 -0.651445 -1.570249
  H 5.231899 -0.089380 -0.171465
  H 4.882960 -2.368993 -3.548452
  H 4.884101 -0.775700 -4.187594
 19
 0.886413
  H 1.540197 0.237952 0.396807
  C 2.614517 0.121156 0.388470
  C 3.300350 0.616485 1.578739
  C 2.359867 1.092482 2.673068
  H 2.926200 1.464313 3.521007
  C 3.179305 -0.466538 -0.721073
  C 4.567551 -0.495146 -0.944468
  C 5.178187 -0.905186 -2.108696
  C 4.533941 -1.283400 -3.357022
  H 3.451848 -1.209144 -3.341507
  H 6.258884 -0.945252 -2.112205
  H 3.944633 1.453070 1.279949
  H 3.978841 -0.148450 1.973860
  H 1.729706 0.280291 3.021199
  H 1.716925 1.891569 2.318480
  H 2.520367 -0.848285 -1.487492
  H 5.219072 -0.211329 -0.131358
  H 4.838794 -2.299277 -3.619436
  H 4.927408 -0.667042 -4.171462
 19
 2.683441
  H 1.549095 0.346446 0.346027
  C 2.617620 0.172469 0.362295
  C 3.308729 0.649195 1.560257
  C 2.360034 1.062080 2.688930
  H 2.925243 1.444499 3.536821
  C 3.181869 -0.462678 -0.715747
  C 4.570828 -0.520226 -0.931638
  C 5.178394 -0.932692 -2.100822
  C 4.520402 -1.280371 -3.344854
  H 3.450790 -1.119371 -3.349739
  H 6.260031 -1.017832 -2.098081
  H 3.902253 1.529438 1.281527
  H 4.021555 -0.100931 1.924056
  H 1.759481 0.210032 3.021956
  H 1.674670 1.838399 2.363562
  H 2.522309 -0.839708 -1.483001
  H 5.229841 -0.276669 -0.111481
  H 4.779511 -2.307846 -3.609777
  H 4.973648 -0.706671 -4.160410
 19
 4.236955
  H 1.612703 0.497074 0.234433
  C 2.648628 0.181116 0.339938
  C 3.325092 0.673308 1.540174
  C 2.361109 1.084634 2.653695
  H 2.913789 1.479862 3.509694
  C 3.175003 -0.643054 -0.627399
  C 4.559977 -0.657082 -0.877727
  C 5.167049 -0.988929 -2.062723
  C 4.516301 -1.179613 -3.352260
  H 3.450376 -0.985000 -3.340860
  H 6.246508 -1.072769 -2.062198
  H 3.906795 1.561436 1.256176
  H 4.053834 -0.052834 1.905755
  H 1.784376 0.226052 2.990562
  H 1.662389 1.850095 2.311832
  H 2.504814 -1.084431 -1.354262
  H 5.209880 -0.438627 -0.043084
  H 4.717744 -2.201033 -3.696398
  H 4.991979 -0.547763 -4.108393
 19
 6.778186
  H 1.712245 0.595572 0.140158
  C 2.699672 0.183504 0.318246
  C 3.353047 0.685850 1.528929
  C 2.349553 1.097389 2.606975
  H 2.876619 1.497971 3.471607
  C 3.188386 -0.728818 -0.576562
  C 4.575152 -0.790313 -0.825000
  C 5.161910 -1.038956 -2.034748
  C 4.489250 -1.091693 -3.329782
  H 3.426361 -0.881542 -3.277941
  H 6.235493 -1.170860 -2.053812
  H 3.907731 1.593294 1.251133
  H 4.077283 -0.026547 1.923100
  H 1.758181 0.240266 2.926328
  H 1.674285 1.866186 2.243295
  H 2.514336 -1.212038 -1.273149
  H 5.227394 -0.610405 0.018543
  H 4.653582 -2.080824 -3.763720
  H 4.965786 -0.405979 -4.030609
 19
 13.208373
  H 1.878397 0.732301 0.003358
  C 2.782718 0.197856 0.283155
  C 3.389906 0.648817 1.540259
  C 2.330259 1.131788 2.542913
  H 2.813179 1.484410 3.439620
  C 3.191926 -0.844853 -0.497618
  C 4.584510 -0.822975 -0.796034
  C 5.145062 -1.041540 -2.021033
  C 4.441229 -1.048381 -3.300532
  H 3.364602 -0.898999 -3.210181
  H 6.229755 -1.119577 -2.077962
  H 4.043363 1.504669 1.331101
  H 3.996715 -0.137892 1.990585
  H 1.674919 0.308482 2.824624
  H 1.722639 1.939781 2.133826
  H 2.498928 -1.328981 -1.170522
  H 5.250482 -0.683284 0.051610
  H 4.663592 -1.981641 -3.813283
  H 4.856068 -0.282199 -3.949546
 19
 24.129245
  H 2.040817 0.660394 -0.113053
  C 2.876437 0.055809 0.245798
  C 3.467477 0.593242 1.480105
  C 2.369938 1.187121 2.379399
  H 2.818524 1.564054 3.294926
  C 3.119898 -1.105460 -0.416499
  C 4.537079 -0.956059 -0.671011
  C 5.093641 -0.970444 -1.914154
  C 4.373872 -0.858144 -3.186278
  H 3.304746 -0.728700 -3.071612
  H 6.170454 -1.041573 -1.984792
  H 4.146858 1.417415 1.251256
  H 4.030567 -0.171831 2.016697
  H 1.633712 0.437473 2.646105
  H 1.859654 2.008813 1.881435
  H 2.456603 -1.603574 -1.111865
  H 5.205974 -0.923729 0.178670
  H 4.600732 -1.734830 -3.803241
  H 4.774180 -0.021086 -3.761472
 19
 35.245389
  H 2.321911 0.725544 -0.290518
  C 3.023961 0.025391 0.171883
  C 3.531545 0.542927 1.474010
  C 2.378282 1.207511 2.235135
  H 2.743396 1.570488 3.193165
  C 3.096511 -1.233952 -0.361963
  C 4.502868 -0.947889 -0.582319
  C 5.043626 -0.906106 -1.842786
  C 4.300240 -0.755372 -3.093127
  H 3.242575 -0.581311 -2.945169
  H 6.116311 -0.996626 -1.926597
  H 4.307812 1.294438 1.310582
  H 3.951643 -0.264460 2.071908
  H 1.576520 0.496900 2.425820
  H 1.974722 2.053467 1.683327
  H 2.431648 -1.737803 -1.036386
  H 5.182662 -1.011716 0.258629
  H 4.445342 -1.644224 -3.708479
  H 4.727782 0.057778 -3.679945
 19
 37.188637
  H 2.533446 0.632437 -0.417319
  C 3.142349 -0.083303 0.140607
  C 3.558605 0.472211 1.472767
  C 2.399286 1.260386 2.083966
  H 2.694893 1.638171 3.059665
  C 3.109502 -1.411073 -0.280785
  C 4.483198 -0.947128 -0.505931
  C 4.991867 -0.808659 -1.790483
  C 4.207961 -0.635068 -3.003963
  H 3.144284 -0.519838 -2.824780
  H 6.069378 -0.843445 -1.907768
  H 4.409642 1.144010 1.350913
  H 3.844103 -0.337118 2.144550
  H 1.528366 0.628095 2.216153
  H 2.124425 2.109025 1.461459
  H 2.463399 -1.938323 -0.956142
  H 5.187798 -1.033722 0.310655
  H 4.378160 -1.485903 -3.668076
  H 4.589269 0.221587 -3.565313
 19
 37.348467
  H 2.684079 0.686502 -0.479747
  C 3.263688 -0.037571 0.098966
  C 3.572108 0.516608 1.480035
  C 2.335215 1.214283 2.038815
  H 2.556862 1.607473 3.030160
  C 3.168458 -1.395027 -0.240048
  C 4.530459 -0.854946 -0.492926
  C 4.973160 -0.805214 -1.815247
  C 4.137639 -0.606886 -2.987116
  H 3.098626 -0.403884 -2.757533
  H 6.033204 -0.945674 -1.988565
  H 4.391788 1.234286 1.413333
  H 3.864592 -0.290760 2.149144
  H 1.508178 0.517697 2.130323
  H 2.024385 2.038705 1.408571
  H 2.530980 -2.009100 -0.840661
  H 5.275508 -0.979395 0.280057
  H 4.202718 -1.484498 -3.641556
  H 4.562829 0.195917 -3.595527
