22

H 1.388734610904663 0.13608260284722568 0.390848013842382
C 2.458709 0.139076 0.397619
C 3.239141 0.609852 1.568419
H 2.689786194385447 0.9521544496827139 2.4204391467626283
C 3.07285 -0.324759 -0.756985
C 4.450298 -0.413051 -0.977376
C 5.123279 -0.864414 -2.102741
C 4.62314 -1.3867 -3.405263
C 3.130757 -1.501884 -3.69364
C 2.898257 -2.063219 -5.093594
H 6.193255689128199 -0.8617806036963327 -2.0961873791559866
H 3.895117 1.422998 1.23706
H 3.895552 -0.206124 1.891843
H 2.402903 -0.638834 -1.538514
H 5.070703 -0.081812 -0.152336
H 5.076607 -2.376425 -3.532835
H 5.077108 -0.759701 -4.181316
H 2.657655 -0.520544 -3.637757
H 2.657095 -2.172415 -2.975299
H 3.334203 -1.416691 -5.852114
H 1.831718 -2.142003 -5.290971
H 3.333655 -3.054949 -5.19514
