 25
 0.000000
  C 0.979795 0.140636 0.401188
  C 2.453474 0.140919 0.401565
  C 3.236686 0.608420 1.564980
  C 2.459462 1.096788 2.780993
  H 3.144803 1.409486 3.559322
  C 3.067472 -0.325053 -0.758560
  C 4.447688 -0.414714 -0.982419
  C 5.102626 -0.864498 -2.103696
  C 4.624077 -1.383036 -3.396232
  C 3.139534 -1.506292 -3.703956
  H 3.006119 -1.906820 -4.702414
  H 6.183618 -0.852738 -2.074679
  H 0.546317 0.510862 1.322751
  H 0.609821 -0.871073 0.228682
  H 0.609534 0.751691 -0.423274
  H 3.896491 1.416417 1.228582
  H 3.896725 -0.207545 1.881011
  H 1.826934 0.306252 3.180146
  H 1.826768 1.943669 2.522475
  H 2.403548 -0.641506 -1.546107
  H 5.085635 -0.089174 -0.171723
  H 5.092316 -2.368493 -3.520447
  H 5.092599 -0.756900 -4.167141
  H 2.654280 -0.533462 -3.665183
  H 2.654039 -2.182487 -3.003653
 25
 -0.206598
  C 0.963804 0.288091 0.364754
  C 2.433235 0.205106 0.366225
  C 3.231369 0.563127 1.558544
  C 2.468363 0.961775 2.813866
  H 3.175539 1.174738 3.611383
  C 3.040227 -0.233078 -0.808753
  C 4.423390 -0.283340 -1.032528
  C 5.084038 -0.751512 -2.142431
  C 4.626932 -1.390125 -3.381745
  C 3.150659 -1.628538 -3.649327
  H 3.041886 -2.136917 -4.604593
  H 6.163336 -0.657569 -2.107731
  H 0.555247 0.696547 1.280292
  H 0.541123 -0.706050 0.204166
  H 0.624648 0.885346 -0.482871
  H 3.902311 1.385205 1.281577
  H 3.890182 -0.278581 1.798610
  H 1.816646 0.160560 3.153273
  H 1.873191 1.857337 2.653276
  H 2.378531 -0.530013 -1.605344
  H 5.055464 0.110226 -0.247802
  H 5.163899 -2.347345 -3.444467
  H 5.057142 -0.807468 -4.208075
  H 2.604029 -0.691265 -3.713833
  H 2.708306 -2.262306 -2.885154
 25
 0.145649
  C 0.964534 0.463432 0.320637
  C 2.426478 0.294217 0.313829
  C 3.234892 0.480570 1.538148
  C 2.481467 0.731253 2.836940
  H 3.192829 0.807786 3.655274
  C 3.019165 -0.072002 -0.891100
  C 4.402170 -0.089927 -1.127979
  C 5.078145 -0.604764 -2.205167
  C 4.641171 -1.435429 -3.333349
  C 3.176241 -1.796350 -3.509266
  H 3.073782 -2.462173 -4.362927
  H 6.146212 -0.422063 -2.214084
  H 0.586120 0.873722 1.248425
  H 0.484355 -0.503070 0.150070
  H 0.654390 1.091791 -0.514785
  H 3.917424 1.321824 1.363674
  H 3.881357 -0.393557 1.666980
  H 1.800661 -0.085511 3.062905
  H 1.918801 1.660900 2.803240
  H 2.351321 -0.304006 -1.704839
  H 5.008564 0.402825 -0.379173
  H 5.236085 -2.358122 -3.274333
  H 5.012937 -0.953062 -4.247297
  H 2.573552 -0.914521 -3.709612
  H 2.790063 -2.312465 -2.634042
 25
 1.549436
  C 0.955540 0.620294 0.283549
  C 2.411553 0.418443 0.212092
  C 3.248791 0.388183 1.431602
  C 2.522460 0.392610 2.769019
  H 3.248069 0.303339 3.573289
  C 2.981319 0.202855 -1.034585
  C 4.367070 0.223184 -1.296216
  C 5.067890 -0.419858 -2.275934
  C 4.653978 -1.497671 -3.185423
  C 3.193270 -1.908889 -3.239757
  H 3.084497 -2.764874 -3.901267
  H 6.120860 -0.178013 -2.349739
  H 0.632221 1.010224 1.241300
  H 0.447498 -0.334717 0.125886
  H 0.618170 1.272278 -0.521325
  H 3.917394 1.258436 1.391299
  H 3.911082 -0.481570 1.387551
  H 1.833705 -0.444885 2.845021
  H 1.970297 1.315885 2.926509
  H 2.303997 0.083630 -1.867040
  H 4.935962 0.869144 -0.636381
  H 5.270726 -2.369678 -2.927335
  H 4.998053 -1.223602 -4.190907
  H 2.573530 -1.108441 -3.633444
  H 2.829818 -2.193990 -2.255184
 25
 4.875637
  C 0.943188 0.641742 0.260385
  C 2.400834 0.507842 0.089285
  C 3.299372 0.307481 1.250977
  C 2.635545 0.031533 2.592214
  H 3.397523 -0.172423 3.339059
  C 2.923206 0.496637 -1.191432
  C 4.312520 0.556822 -1.507829
  C 5.047748 -0.261995 -2.293269
  C 4.639137 -1.536806 -2.914222
  C 3.163950 -1.886799 -2.900623
  H 3.019832 -2.885056 -3.308924
  H 6.094203 -0.018794 -2.426310
  H 0.676163 0.972910 1.258645
  H 0.467810 -0.331665 0.112282
  H 0.519322 1.309240 -0.487100
  H 3.917364 1.212696 1.336184
  H 4.009357 -0.494228 1.027453
  H 1.980656 -0.835485 2.533762
  H 2.053812 0.882212 2.939533
  H 2.220703 0.504946 -2.015161
  H 4.834008 1.367612 -1.009865
  H 5.219190 -2.334574 -2.432699
  H 5.003785 -1.520373 -3.948569
  H 2.591979 -1.191073 -3.504391
  H 2.772899 -1.877125 -1.883515
 25
 9.692993
  C 0.939271 0.648264 0.287050
  C 2.375331 0.527353 -0.001221
  C 3.349799 0.205261 1.066586
  C 2.776330 -0.241850 2.403152
  H 3.586998 -0.512986 3.074695
  C 2.810752 0.678416 -1.302057
  C 4.195791 0.747277 -1.696699
  C 4.999749 -0.116419 -2.316795
  C 4.645666 -1.510722 -2.697450
  C 3.179947 -1.876541 -2.568333
  H 3.023988 -2.904238 -2.887021
  H 6.020495 0.172874 -2.527396
  H 0.752704 0.915197 1.324350
  H 0.446018 -0.313866 0.116842
  H 0.461665 1.361959 -0.381772
  H 3.967066 1.099374 1.221718
  H 4.050948 -0.554439 0.701919
  H 2.134850 -1.108291 2.281238
  H 2.201539 0.546813 2.883922
  H 2.066635 0.849009 -2.069627
  H 4.581703 1.715194 -1.366595
  H 5.270568 -2.195430 -2.109216
  H 4.956447 -1.639576 -3.739418
  H 2.564794 -1.231609 -3.188791
  H 2.845684 -1.796292 -1.532917
 25
 19.936014
  C 0.927971 0.798350 0.401953
  C 2.320650 0.613937 -0.027505
  C 3.366197 0.139819 0.908174
  C 2.873035 -0.454057 2.216527
  H 3.717376 -0.845247 2.779102
  C 2.632788 0.846330 -1.355822
  C 3.950629 0.788534 -1.904524
  C 4.887831 0.002828 -2.372492
  C 4.738063 -1.470999 -2.590652
  C 3.350513 -2.025189 -2.311968
  H 3.343642 -3.096145 -2.496643
  H 5.858037 0.397521 -2.627047
  H 0.840394 0.878190 1.484021
  H 0.328016 -0.067320 0.097479
  H 0.478186 1.663656 -0.080677
  H 4.043042 0.976198 1.128788
  H 3.989147 -0.593210 0.390556
  H 2.175609 -1.269182 2.036944
  H 2.381715 0.289323 2.841796
  H 1.832167 1.111903 -2.027445
  H 4.067639 1.870248 -1.594514
  H 5.482968 -1.971222 -1.967173
  H 5.006506 -1.670324 -3.632977
  H 2.615962 -1.566291 -2.966263
  H 3.052988 -1.862545 -1.278840
 25
 35.392763
  C 0.908380 0.906380 0.518060
  C 2.284363 0.626666 0.063990
  C 3.330971 0.117692 0.988114
  C 2.828828 -0.412516 2.330798
  H 3.655721 -0.854544 2.876882
  C 2.591815 0.841084 -1.290209
  C 3.849475 0.631668 -1.893515
  C 4.807445 0.032656 -2.523408
  C 4.825771 -1.437697 -2.835619
  C 3.578631 -2.183132 -2.387394
  H 3.667899 -3.234778 -2.656083
  H 5.659507 0.577356 -2.898102
  H 0.864990 1.079298 1.584865
  H 0.261796 0.056176 0.304680
  H 0.483617 1.759075 -0.008813
  H 4.060061 0.913659 1.180825
  H 3.892202 -0.678432 0.476655
  H 2.073831 -1.176369 2.188108
  H 2.413983 0.373747 2.949778
  H 1.772139 1.114409 -1.950930
  H 3.694312 1.743214 -1.425569
  H 5.714653 -1.854261 -2.357410
  H 4.952509 -1.542050 -3.911751
  H 2.696872 -1.787574 -2.876763
  H 3.445494 -2.123431 -1.305044
 25
 43.197395
  C 0.922602 0.952781 0.578325
  C 2.290200 0.689981 0.104222
  C 3.364294 0.163488 0.984549
  C 2.893768 -0.440760 2.306595
  H 3.740934 -0.886215 2.824514
  C 2.586293 0.942212 -1.291886
  C 3.773611 0.557152 -1.922374
  C 4.773910 0.001448 -2.535334
  C 4.853464 -1.475114 -2.856952
  C 3.593163 -2.272483 -2.439016
  H 3.724987 -3.321981 -2.692043
  H 5.653173 0.575642 -2.879363
  H 0.884951 1.091495 1.654909
  H 0.274984 0.102649 0.336175
  H 0.489946 1.821648 0.081414
  H 4.082264 0.963055 1.212187
  H 3.928143 -0.593322 0.427024
  H 2.151849 -1.219264 2.138894
  H 2.468364 0.312515 2.964998
  H 1.743750 1.189299 -1.937779
  H 3.302656 1.856445 -1.181204
  H 5.754109 -1.859699 -2.336504
  H 5.023675 -1.565983 -3.950411
  H 2.698265 -1.910827 -2.973796
  H 3.419115 -2.207929 -1.349518
 25
 38.372372
  C 0.976308 1.096175 0.627770
  C 2.308689 0.770708 0.105058
  C 3.371348 0.150906 0.927146
  C 2.892447 -0.512809 2.218234
  H 3.728101 -1.020323 2.692590
  C 2.572242 1.033420 -1.320952
  C 3.684778 0.504369 -1.988783
  C 4.710821 -0.037906 -2.528079
  C 4.907311 -1.510528 -2.812951
  C 3.705238 -2.364024 -2.443639
  H 3.910720 -3.406163 -2.672850
  H 5.552984 0.568025 -2.850894
  H 0.975529 1.225249 1.703664
  H 0.292964 0.272627 0.396137
  H 0.557241 1.980924 0.153744
  H 4.121175 0.907955 1.195005
  H 3.902496 -0.586387 0.310302
  H 2.119187 -1.250841 2.014228
  H 2.503556 0.213318 2.929038
  H 1.692631 1.221597 -1.936640
  H 2.980457 2.015004 -0.957199
  H 5.789321 -1.834949 -2.258571
  H 5.130422 -1.618476 -3.874973
  H 2.828469 -2.056801 -3.006899
  H 3.482754 -2.287786 -1.383800
 25
 42.803952
  C 0.981257 1.167319 0.627476
  C 2.325759 0.801236 0.138249
  C 3.358131 0.171062 1.016588
  C 2.810617 -0.442129 2.303937
  H 3.611917 -0.963448 2.820848
  C 2.581584 0.882607 -1.309980
  C 3.695488 0.417129 -1.948524
  C 4.679828 -0.058601 -2.620168
  C 4.903507 -1.508490 -2.976861
  C 3.767679 -2.419372 -2.533061
  H 3.984978 -3.445619 -2.818543
  H 5.474863 0.596158 -2.966722
  H 0.967499 1.316820 1.701989
  H 0.280936 0.360909 0.397252
  H 0.599400 2.060796 0.138542
  H 4.122265 0.903995 1.293097
  H 3.874827 -0.605911 0.444261
  H 2.023359 -1.159749 2.090755
  H 2.423303 0.314068 2.980849
  H 1.736909 1.157478 -1.935953
  H 2.952509 1.800329 -0.624283
  H 5.843618 -1.824628 -2.518670
  H 5.031569 -1.565848 -4.059910
  H 2.832353 -2.125053 -3.002377
  H 3.642415 -2.387230 -1.453701
 25
 36.048338
  C 1.020747 1.269565 0.659733
  C 2.379497 0.904821 0.160174
  C 3.380462 0.192955 1.040006
  C 2.780546 -0.460115 2.279991
  H 3.550374 -1.030612 2.793146
  C 2.550729 0.821882 -1.312901
  C 3.618720 0.332807 -1.943548
  C 4.601782 -0.098112 -2.652201
  C 4.890715 -1.525308 -3.024109
  C 3.821877 -2.497834 -2.538224
  H 4.079547 -3.509776 -2.842269
  H 5.342101 0.607045 -3.018789
  H 1.013713 1.400007 1.736412
  H 0.313098 0.473261 0.422967
  H 0.650137 2.176406 0.189062
  H 4.154939 0.890783 1.367112
  H 3.886301 -0.573439 0.449617
  H 1.976415 -1.139852 2.010723
  H 2.397334 0.275107 2.982113
  H 1.703961 1.149256 -1.908708
  H 2.914351 1.852044 -0.286644
  H 5.865548 -1.797584 -2.608841
  H 4.977631 -1.569250 -4.112826
  H 2.851559 -2.248309 -2.964125
  H 3.741741 -2.479485 -1.453161
 25
 26.389738
  C 1.122648 1.414592 0.695527
  C 2.489572 1.056371 0.161287
  C 3.396117 0.155981 1.000868
  C 2.687392 -0.610783 2.112796
  H 3.391881 -1.292633 2.582362
  C 2.537962 0.862319 -1.321064
  C 3.527111 0.328851 -1.999250
  C 4.471793 -0.122484 -2.763604
  C 4.828725 -1.548167 -3.021328
  C 3.915534 -2.543067 -2.320566
  H 4.219455 -3.556486 -2.567595
  H 5.099818 0.597132 -3.280874
  H 1.133365 1.499514 1.776377
  H 0.398997 0.643935 0.434150
  H 0.771426 2.353379 0.275932
  H 4.185607 0.758783 1.455510
  H 3.888213 -0.563690 0.347353
  H 1.861597 -1.194271 1.714542
  H 2.306520 0.048256 2.887315
  H 1.687645 1.262643 -1.863662
  H 3.048985 2.016552 0.004390
  H 5.866250 -1.709911 -2.714505
  H 4.798232 -1.695379 -4.104994
  H 2.885087 -2.406177 -2.636657
  H 3.964677 -2.430585 -1.241389
 25
 23.248210
  C 1.100217 1.388597 0.701217
  C 2.516203 1.195349 0.176534
  C 3.491359 0.388538 1.092388
  C 2.784281 -0.508715 2.101359
  H 3.537561 -1.098642 2.623001
  C 2.505089 0.642449 -1.210511
  C 3.551079 0.224291 -1.869356
  C 4.614744 -0.228205 -2.477688
  C 4.851309 -1.621594 -2.930339
  C 3.681112 -2.562450 -2.712759
  H 3.947534 -3.563462 -3.037027
  H 5.419435 0.469591 -2.690025
  H 1.121498 1.681135 1.745941
  H 0.510767 0.480862 0.606974
  H 0.599814 2.183257 0.152558
  H 4.137528 1.089575 1.621450
  H 4.126822 -0.238641 0.467027
  H 2.099301 -1.198610 1.614272
  H 2.237052 0.062498 2.845184
  H 1.541661 0.639820 -1.711816
  H 2.968878 2.189564 0.068204
  H 5.743044 -1.970893 -2.394973
  H 5.137015 -1.612218 -3.987633
  H 2.812231 -2.247452 -3.282831
  H 3.404785 -2.597594 -1.662107
 25
 23.313633
  C 1.288235 1.653355 0.717214
  C 2.625844 1.123084 0.225647
  C 3.347498 0.102739 1.170454
  C 2.468612 -0.470300 2.269661
  H 3.049437 -1.203389 2.826437
  C 2.488514 0.437379 -1.106678
  C 3.492799 0.141785 -1.882543
  C 4.470850 -0.162194 -2.694697
  C 4.847090 -1.520080 -3.153749
  C 3.954494 -2.636000 -2.640702
  H 4.318126 -3.593548 -3.003178
  H 5.092508 0.643483 -3.074747
  H 1.351046 1.936269 1.763394
  H 0.494905 0.919766 0.605464
  H 1.015312 2.546599 0.159502
  H 4.207798 0.609417 1.607415
  H 3.727648 -0.735443 0.585134
  H 1.596858 -0.979798 1.868465
  H 2.136218 0.295696 2.963527
  H 1.477210 0.235332 -1.443016
  H 3.303565 1.965423 0.064327
  H 5.888211 -1.675805 -2.845718
  H 4.866078 -1.525019 -4.248552
  H 2.932189 -2.513348 -2.989068
  H 3.946109 -2.657999 -1.553648
