 29
 0.000000
  C 0.964814 0.140838 0.402046
  C 2.441004 0.138591 0.396025
  C 3.230945 0.606749 1.560813
  C 2.459966 1.097764 2.782947
  C 3.417281 1.540647 3.885065
  C 3.055013 -0.326288 -0.761245
  C 4.432769 -0.410471 -0.971468
  C 5.115218 -0.860938 -2.094740
  C 4.626680 -1.384235 -3.399306
  C 3.137709 -1.502743 -3.695127
  H 2.987284 -1.901046 -4.688177
  O 6.437744 -0.854208 -2.078301
  H 0.533550 0.511529 1.324531
  H 0.592439 -0.870685 0.234901
  H 0.592152 0.755285 -0.418545
  H 3.887493 1.417291 1.224903
  H 3.887671 -0.210723 1.879105
  H 1.822787 0.301996 3.173284
  H 1.822696 1.942313 2.514216
  H 4.053074 0.717645 4.204362
  H 2.858483 1.888340 4.750562
  H 4.052962 2.355834 3.546121
  H 2.396926 -0.643856 -1.551740
  H 5.050245 -0.078262 -0.143755
  H 5.085015 -2.371884 -3.522791
  H 5.085224 -0.755880 -4.171130
  H 2.659925 -0.526073 -3.646511
  H 2.659757 -2.175012 -2.985109
  H 6.811131 -0.519070 -1.241650
 29
 -0.234390
  C 0.951771 0.187068 0.388290
  C 2.427701 0.166697 0.382595
  C 3.222601 0.603722 1.556902
  C 2.459063 1.082498 2.790337
  C 3.432153 1.488918 3.894773
  C 3.041974 -0.285373 -0.782712
  C 4.418326 -0.369553 -0.980254
  C 5.111739 -0.816326 -2.100141
  C 4.626412 -1.402530 -3.381530
  C 3.140111 -1.558954 -3.661385
  H 3.024203 -2.017984 -4.641748
  O 6.430758 -0.768500 -2.091668
  H 0.530619 0.546132 1.318457
  H 0.567014 -0.814550 0.187691
  H 0.587650 0.810695 -0.430373
  H 3.893854 1.409693 1.238052
  H 3.873950 -0.224422 1.859717
  H 1.813754 0.287134 3.168685
  H 1.836201 1.943478 2.539315
  H 4.056632 0.648837 4.192741
  H 2.888006 1.829856 4.772678
  H 4.079163 2.299792 3.565472
  H 2.384519 -0.578507 -1.581159
  H 5.046877 -0.047715 -0.158618
  H 5.110825 -2.383083 -3.458585
  H 5.082635 -0.804018 -4.178539
  H 2.635684 -0.596580 -3.690215
  H 2.663943 -2.212898 -2.935472
  H 6.822872 -0.400983 -1.276183
 29
 -0.158657
  C 0.951942 0.241579 0.365488
  C 2.427864 0.201946 0.367019
  C 3.222712 0.602812 1.553901
  C 2.460286 1.060479 2.793794
  C 3.433613 1.427691 3.912441
  C 3.042317 -0.233847 -0.803541
  C 4.419868 -0.322877 -0.999951
  C 5.112097 -0.770798 -2.120362
  C 4.628181 -1.426484 -3.369203
  C 3.143955 -1.630702 -3.622428
  H 3.029485 -2.161041 -4.564637
  O 6.428138 -0.683257 -2.130720
  H 0.531017 0.581067 1.301439
  H 0.554819 -0.748115 0.135620
  H 0.601171 0.891748 -0.438352
  H 3.903847 1.409007 1.255721
  H 3.863769 -0.239186 1.839488
  H 1.804007 0.264565 3.149141
  H 1.849768 1.934104 2.560781
  H 4.044211 0.572551 4.193797
  H 2.890337 1.756280 4.795029
  H 4.094049 2.236001 3.604976
  H 2.387254 -0.498421 -1.610285
  H 5.050815 -0.003301 -0.178365
  H 5.133388 -2.398525 -3.402735
  H 5.062881 -0.858763 -4.200653
  H 2.620857 -0.683138 -3.717082
  H 2.686975 -2.238867 -2.846900
  H 6.817266 -0.269448 -1.339498
 29
 -0.020287
  C 0.955494 0.281571 0.347065
  C 2.430338 0.233893 0.349547
  C 3.225309 0.601311 1.547140
  C 2.462152 1.035635 2.794660
  C 3.434320 1.364337 3.926688
  C 3.044605 -0.180981 -0.827701
  C 4.422117 -0.264199 -1.028056
  C 5.112116 -0.718865 -2.149694
  C 4.634484 -1.448030 -3.356404
  C 3.151062 -1.698367 -3.574486
  H 3.033582 -2.285701 -4.480788
  O 6.423305 -0.585885 -2.183068
  H 0.533976 0.592484 1.294552
  H 0.552954 -0.696119 0.082549
  H 0.610713 0.960875 -0.434383
  H 3.912175 1.409824 1.269372
  H 3.859640 -0.251531 1.814926
  H 1.795058 0.237939 3.127418
  H 1.861696 1.922433 2.580585
  H 4.034724 0.496002 4.188713
  H 2.890067 1.676582 4.815386
  H 4.104197 2.173113 3.642431
  H 2.387240 -0.429187 -1.642862
  H 5.056722 0.056462 -0.211239
  H 5.161575 -2.408198 -3.341064
  H 5.046160 -0.916890 -4.222142
  H 2.605658 -0.768363 -3.717228
  H 2.717793 -2.266762 -2.754958
  H 6.808906 -0.127124 -1.414832
 29
 0.284967
  C 0.952944 0.319935 0.332984
  C 2.428283 0.268487 0.332174
  C 3.227044 0.599142 1.539472
  C 2.468113 1.000990 2.798428
  C 3.443052 1.303772 3.934431
  C 3.040881 -0.115661 -0.856171
  C 4.416247 -0.195278 -1.063688
  C 5.104971 -0.665568 -2.180187
  C 4.644644 -1.472427 -3.339261
  C 3.165060 -1.762268 -3.529395
  H 3.049163 -2.406896 -4.396355
  O 6.412907 -0.496588 -2.228432
  H 0.532503 0.613388 1.286507
  H 0.547222 -0.652307 0.049360
  H 0.608283 1.015004 -0.437104
  H 3.915768 1.413193 1.283444
  H 3.861593 -0.258980 1.783128
  H 1.804705 0.193308 3.113115
  H 1.866229 1.890747 2.607178
  H 4.047007 0.430986 4.171210
  H 2.900262 1.589250 4.833603
  H 4.107579 2.121802 3.670028
  H 2.385172 -0.339794 -1.679761
  H 5.060947 0.109215 -0.248237
  H 5.191611 -2.417168 -3.261688
  H 5.040977 -0.989794 -4.238329
  H 2.601662 -0.851661 -3.725832
  H 2.749278 -2.283797 -2.671652
  H 6.788429 0.014906 -1.487767
 29
 0.872388
  C 0.948820 0.355193 0.315575
  C 2.423759 0.300763 0.311499
  C 3.227389 0.592881 1.526871
  C 2.474656 0.965923 2.801503
  C 3.458039 1.237065 3.938240
  C 3.033866 -0.052568 -0.887243
  C 4.406137 -0.126802 -1.097342
  C 5.096209 -0.613822 -2.205381
  C 4.656575 -1.490745 -3.318946
  C 3.180616 -1.833440 -3.467410
  H 3.069470 -2.533618 -4.290472
  O 6.396818 -0.399711 -2.271938
  H 0.531174 0.626530 1.275380
  H 0.540642 -0.609049 0.008658
  H 0.604444 1.067102 -0.439449
  H 3.918324 1.411664 1.286385
  H 3.862801 -0.273476 1.744108
  H 1.812195 0.150645 3.097654
  H 1.873843 1.862353 2.633527
  H 4.063213 0.357535 4.147259
  H 2.922772 1.497355 4.849161
  H 4.121216 2.061733 3.691572
  H 2.379548 -0.251951 -1.721765
  H 5.063653 0.158917 -0.285998
  H 5.235339 -2.412984 -3.194313
  H 5.026465 -1.046502 -4.249157
  H 2.590126 -0.953066 -3.709807
  H 2.792377 -2.305447 -2.572584
  H 6.756125 0.165169 -1.565598
 29
 1.646071
  C 0.951849 0.378605 0.299924
  C 2.425561 0.321756 0.294855
  C 3.231846 0.582179 1.517659
  C 2.481148 0.941353 2.799369
  C 3.460935 1.187436 3.943181
  C 3.035760 -0.007699 -0.908189
  C 4.411284 -0.083972 -1.119983
  C 5.094591 -0.579790 -2.227937
  C 4.660016 -1.495489 -3.309765
  C 3.194440 -1.893134 -3.407388
  H 3.083102 -2.622726 -4.205384
  O 6.385492 -0.320381 -2.328570
  H 0.536093 0.624951 1.265458
  H 0.539819 -0.578818 -0.031571
  H 0.609247 1.114785 -0.430544
  H 3.931698 1.399480 1.292605
  H 3.858695 -0.293841 1.715866
  H 1.807434 0.129146 3.083844
  H 1.884598 1.842690 2.648223
  H 4.062431 0.303090 4.137341
  H 2.924275 1.435174 4.855152
  H 4.128454 2.014743 3.712930
  H 2.383296 -0.175777 -1.751012
  H 5.078277 0.163422 -0.301068
  H 5.277258 -2.394044 -3.181842
  H 4.993884 -1.062566 -4.260583
  H 2.570575 -1.042073 -3.659355
  H 2.847826 -2.347896 -2.488915
  H 6.734181 0.291136 -1.653697
 29
 2.750169
  C 0.954285 0.447265 0.274978
  C 2.429278 0.359417 0.273311
  C 3.232070 0.549308 1.507404
  C 2.482108 0.901462 2.785604
  C 3.455587 1.091735 3.942245
  C 3.042136 0.055035 -0.934345
  C 4.412240 0.002458 -1.159393
  C 5.086991 -0.509275 -2.276641
  C 4.670709 -1.511487 -3.292086
  C 3.224193 -1.987037 -3.287476
  H 3.116070 -2.778603 -4.022531
  O 6.357997 -0.200315 -2.439301
  H 0.539870 0.665245 1.254150
  H 0.527665 -0.492201 -0.083578
  H 0.625477 1.207139 -0.433335
  H 3.966728 1.347316 1.318312
  H 3.820929 -0.356616 1.685486
  H 1.787682 0.101100 3.046275
  H 1.914491 1.821224 2.653783
  H 4.036580 0.188549 4.113760
  H 2.916368 1.319753 4.853406
  H 4.138309 1.908821 3.745688
  H 2.390469 -0.092609 -1.785667
  H 5.088760 0.241868 -0.352646
  H 5.349216 -2.357940 -3.146296
  H 4.938069 -1.103491 -4.275377
  H 2.542459 -1.186231 -3.566616
  H 2.944128 -2.389380 -2.315792
  H 6.705021 0.453435 -1.801547
 29
 2.271669
  C 0.965638 0.431182 0.271172
  C 2.438950 0.355803 0.266612
  C 3.238892 0.534929 1.503927
  C 2.484520 0.859812 2.791673
  C 3.461113 1.080839 3.941423
  C 3.049140 0.056231 -0.944399
  C 4.417656 -0.004679 -1.165941
  C 5.095772 -0.490218 -2.286517
  C 4.668891 -1.506580 -3.288396
  C 3.229412 -1.993181 -3.265385
  H 3.136465 -2.847224 -3.931199
  O 6.357579 -0.159191 -2.465522
  H 0.548486 0.638804 1.248223
  H 0.547749 -0.506610 -0.096202
  H 0.630484 1.195691 -0.429959
  H 3.965057 1.337089 1.321108
  H 3.833567 -0.371988 1.668839
  H 1.810615 0.041710 3.055944
  H 1.890196 1.766804 2.660658
  H 4.068081 0.191677 4.112842
  H 2.921050 1.297612 4.860050
  H 4.124056 1.917221 3.735807
  H 2.396538 -0.054783 -1.793765
  H 5.074469 0.231614 -0.335430
  H 5.340861 -2.355558 -3.135445
  H 4.915850 -1.119400 -4.282601
  H 2.542828 -1.227311 -3.617708
  H 2.938668 -2.312661 -2.268834
  H 6.699232 0.506244 -1.839595
 29
 2.433307
  C 0.976519 0.427708 0.262663
  C 2.449175 0.338089 0.270371
  C 3.244744 0.554798 1.503245
  C 2.481085 0.873376 2.785634
  C 3.449232 1.051857 3.951926
  C 3.065424 0.022813 -0.934857
  C 4.439857 -0.043161 -1.147190
  C 5.111316 -0.507075 -2.280030
  C 4.659992 -1.497742 -3.296116
  C 3.234359 -2.022956 -3.241644
  H 3.134505 -2.833705 -3.959660
  O 6.361582 -0.151655 -2.486390
  H 0.558428 0.674088 1.231042
  H 0.548574 -0.518104 -0.075728
  H 0.656410 1.174246 -0.463183
  H 3.969136 1.353907 1.321411
  H 3.833359 -0.351969 1.685575
  H 1.785446 0.068799 3.025250
  H 1.912848 1.797074 2.664707
  H 4.016194 0.141877 4.131409
  H 2.904789 1.293510 4.861743
  H 4.148360 1.862450 3.756802
  H 2.417408 -0.097005 -1.787710
  H 5.088233 0.153169 -0.305829
  H 5.362321 -2.333833 -3.199792
  H 4.859043 -1.070208 -4.282631
  H 2.515885 -1.257082 -3.514984
  H 2.993393 -2.412681 -2.257339
  H 6.711164 0.504113 -1.855415
 29
 4.831499
  C 0.989503 0.544732 0.206935
  C 2.453562 0.392895 0.228404
  C 3.237610 0.488317 1.488368
  C 2.474247 0.817512 2.770351
  C 3.435349 0.918996 3.951983
  C 3.075910 0.128498 -0.987053
  C 4.448125 0.027805 -1.187518
  C 5.102755 -0.465103 -2.321136
  C 4.647645 -1.509505 -3.269379
  C 3.303119 -2.176514 -3.021563
  H 3.213025 -3.035033 -3.675769
  O 6.322205 -0.052259 -2.593036
  H 0.563281 0.729279 1.188263
  H 0.529005 -0.352773 -0.214138
  H 0.712862 1.362622 -0.460041
  H 4.018202 1.245572 1.351113
  H 3.761671 -0.461529 1.640347
  H 1.742838 0.038332 2.984196
  H 1.948414 1.765798 2.664014
  H 3.956560 -0.022033 4.110125
  H 2.891993 1.156419 4.863613
  H 4.177107 1.700000 3.786662
  H 2.446558 0.149362 -1.862580
  H 5.101483 0.098856 -0.327231
  H 5.444003 -2.264537 -3.259450
  H 4.675634 -1.087914 -4.279674
  H 2.475246 -1.509083 -3.241538
  H 3.220190 -2.525752 -1.996847
  H 6.642725 0.684570 -2.038003
 29
 7.391373
  C 0.977026 0.586986 0.186502
  C 2.446494 0.470191 0.180970
  C 3.247283 0.521617 1.430732
  C 2.490392 0.723899 2.743460
  C 3.460134 0.726438 3.923002
  C 3.058901 0.275131 -1.052909
  C 4.427173 0.206774 -1.276478
  C 5.094319 -0.426410 -2.336670
  C 4.679749 -1.612048 -3.124669
  C 3.314327 -2.212859 -2.841294
  H 3.191198 -3.102909 -3.447485
  O 6.302186 -0.025683 -2.668369
  H 0.560744 0.715601 1.184543
  H 0.530121 -0.303551 -0.268335
  H 0.669605 1.427767 -0.440684
  H 3.981397 1.330832 1.330345
  H 3.825069 -0.407339 1.510639
  H 1.770103 -0.081840 2.890046
  H 1.950970 1.672390 2.728429
  H 3.990903 -0.220448 3.989041
  H 2.921791 0.869194 4.856610
  H 4.193154 1.525101 3.825608
  H 2.415103 0.262499 -1.917319
  H 5.104165 0.294888 -0.431628
  H 5.462568 -2.359713 -2.960783
  H 4.757050 -1.352035 -4.185341
  H 2.509601 -1.526546 -3.091709
  H 3.224677 -2.507889 -1.799153
  H 6.616931 0.780641 -2.216575
 29
 13.887811
  C 0.966481 0.621029 0.199711
  C 2.441667 0.460060 0.197193
  C 3.247489 0.473930 1.450032
  C 2.497295 0.698643 2.765144
  C 3.469214 0.694727 3.938761
  C 3.050988 0.274509 -1.054424
  C 4.405698 0.184047 -1.274688
  C 5.095618 -0.453637 -2.318176
  C 4.703794 -1.641574 -3.135145
  C 3.377882 -2.300434 -2.808435
  H 3.278002 -3.201063 -3.401130
  O 6.260236 0.024613 -2.671766
  H 0.554991 0.742551 1.196219
  H 0.494179 -0.243947 -0.263472
  H 0.677493 1.481113 -0.418551
  H 4.015377 1.261416 1.349625
  H 3.782875 -0.471727 1.522993
  H 1.766934 -0.102629 2.921163
  H 1.966226 1.653957 2.745261
  H 3.989992 -0.258956 4.002555
  H 2.935048 0.835405 4.874389
  H 4.210332 1.482697 3.837700
  H 2.419449 0.353494 -1.921947
  H 5.108598 0.144585 -0.436510
  H 5.517558 -2.362080 -3.042656
  H 4.723068 -1.346490 -4.182565
  H 2.538630 -1.655660 -3.032923
  H 3.339635 -2.603196 -1.750842
  H 6.561371 0.838532 -2.229860
