 23
 0.000000
  C 1.005391 0.110269 0.326565
  C 2.479675 0.125522 0.365328
  C 3.228857 0.603458 1.553168
  C 2.408778 1.082391 2.743328
  H 3.081051 1.401699 3.537286
  C 3.150041 -0.330953 -0.769577
  C 4.536081 -0.393973 -0.927243
  C 5.190098 -0.851633 -2.070750
  C 4.526365 -1.341444 -3.293954
  H 3.449191 -1.313081 -3.223494
  O 6.499862 -0.874641 -2.129948
  H 0.550740 0.477159 1.238029
  H 0.650379 -0.903762 0.136269
  H 0.650880 0.710269 -0.512996
  H 3.889003 1.417634 1.234918
  H 3.888952 -0.204244 1.887574
  H 1.779254 0.289736 3.139013
  H 1.779562 1.928462 2.479773
  H 2.531677 -0.661256 -1.591662
  H 5.168486 -0.067565 -0.113182
  H 4.859373 -2.357885 -3.499711
  H 4.859569 -0.748084 -4.144419
  H 6.944454 -0.551900 -1.324058
 23
 1.897133
  C 1.003283 0.027477 0.368568
  C 2.477237 0.091696 0.385005
  C 3.223841 0.649799 1.539219
  C 2.403342 1.150638 2.720565
  H 3.073587 1.527993 3.488894
  C 3.144295 -0.391844 -0.737000
  C 4.525050 -0.418274 -0.911147
  C 5.183663 -0.849544 -2.058040
  C 4.537416 -1.215485 -3.335612
  H 3.463956 -1.082170 -3.327957
  O 6.500168 -0.869447 -2.105572
  H 0.548295 0.401779 1.276614
  H 0.678237 -1.001079 0.204013
  H 0.618828 0.595707 -0.480380
  H 3.847421 1.473566 1.174570
  H 3.921043 -0.114870 1.898326
  H 1.811547 0.352331 3.161443
  H 1.742112 1.963479 2.430514
  H 2.524804 -0.786498 -1.529107
  H 5.153415 -0.035958 -0.117761
  H 4.780004 -2.253222 -3.566928
  H 4.974731 -0.621703 -4.138439
  H 6.948653 -0.997270 -1.248463
 23
 7.420451
  C 0.991681 0.086476 0.351816
  C 2.463594 0.139544 0.374822
  C 3.209815 0.646942 1.549188
  C 2.391409 1.095518 2.752097
  H 3.062904 1.437257 3.535720
  C 3.131437 -0.311743 -0.759434
  C 4.515055 -0.323773 -0.935368
  C 5.184285 -0.784773 -2.061761
  C 4.554440 -1.305856 -3.289105
  H 3.473417 -1.280831 -3.260646
  O 6.510424 -0.673889 -2.119596
  H 0.536356 0.425270 1.273584
  H 0.659190 -0.931175 0.141267
  H 0.615188 0.692320 -0.474484
  H 3.831960 1.485880 1.217102
  H 3.911313 -0.129435 1.872434
  H 1.799142 0.278918 3.157374
  H 1.730895 1.921233 2.499798
  H 2.513881 -0.679357 -1.565892
  H 5.145130 0.101044 -0.167361
  H 4.894693 -2.328855 -3.452627
  H 4.913700 -0.735311 -4.146595
  H 7.023467 -1.136961 -1.438739
 23
 10.858078
  C 0.979579 0.152440 0.326636
  C 2.450689 0.189426 0.358732
  C 3.196716 0.622878 1.560579
  C 2.379851 1.002823 2.787575
  H 3.052348 1.294762 3.590134
  C 3.121330 -0.210376 -0.794243
  C 4.506266 -0.215919 -0.966238
  C 5.186666 -0.722087 -2.063526
  C 4.580744 -1.435817 -3.202497
  H 3.503660 -1.511413 -3.131318
  O 6.507774 -0.500010 -2.127359
  H 0.523099 0.445583 1.263403
  H 0.637865 -0.848831 0.059703
  H 0.613508 0.805105 -0.468275
  H 3.822371 1.477215 1.277084
  H 3.897745 -0.171960 1.836478
  H 1.784090 0.165955 3.143377
  H 1.722672 1.844689 2.584782
  H 2.506962 -0.531391 -1.623193
  H 5.140205 0.227901 -0.211292
  H 5.007828 -2.436410 -3.277085
  H 4.856113 -0.926974 -4.127694
  H 7.096775 -1.169318 -1.750891
 23
 6.612338
  C 0.970083 0.182121 0.313877
  C 2.442775 0.212554 0.358098
  C 3.181446 0.616609 1.576507
  C 2.356056 0.963418 2.807892
  H 3.022962 1.236764 3.621662
  C 3.122753 -0.164297 -0.798951
  C 4.509435 -0.163759 -0.961915
  C 5.204191 -0.681779 -2.048703
  C 4.621780 -1.490673 -3.138702
  H 3.550010 -1.606042 -3.043496
  O 6.503045 -0.404640 -2.092614
  H 0.507992 0.455430 1.253919
  H 0.626529 -0.811397 0.021957
  H 0.612463 0.854957 -0.467845
  H 3.806431 1.479466 1.318446
  H 3.883732 -0.182543 1.835768
  H 1.760521 0.116126 3.138596
  H 1.697846 1.808492 2.622469
  H 2.514937 -0.468006 -1.639777
  H 5.144947 0.254574 -0.192754
  H 5.078169 -2.480648 -3.167797
  H 4.859692 -1.017843 -4.092701
  H 7.100495 -1.164796 -2.190097
 23
 4.404266
  C 0.944720 0.299166 0.265747
  C 2.420391 0.305129 0.298450
  C 3.180193 0.547382 1.550130
  C 2.373602 0.767626 2.823375
  H 3.053479 0.931123 3.656321
  C 3.092710 0.047192 -0.890220
  C 4.479156 0.054493 -1.049708
  C 5.188089 -0.612810 -2.034733
  C 4.639309 -1.680397 -2.896064
  H 3.574812 -1.820661 -2.732721
  O 6.451727 -0.259030 -2.156807
  H 0.496927 0.466317 1.236575
  H 0.582954 -0.648705 -0.132908
  H 0.590280 1.064890 -0.426269
  H 3.821395 1.421428 1.382167
  H 3.868831 -0.288253 1.707673
  H 1.762070 -0.099552 3.061069
  H 1.731827 1.641369 2.742927
  H 2.488096 -0.151271 -1.766404
  H 5.109104 0.679581 -0.430059
  H 5.145808 -2.627405 -2.705755
  H 4.820271 -1.429132 -3.942750
  H 7.068737 -0.951815 -2.458024
 23
 12.986577
  C 0.921335 0.415553 0.247755
  C 2.395749 0.395041 0.219684
  C 3.213833 0.514875 1.452376
  C 2.471873 0.495855 2.781587
  H 3.187667 0.590792 3.594229
  C 3.023693 0.248252 -1.004145
  C 4.416320 0.239993 -1.200843
  C 5.141446 -0.564042 -2.057040
  C 4.668108 -1.828537 -2.646438
  H 3.619898 -1.990225 -2.421130
  O 6.375105 -0.134112 -2.285076
  H 0.517059 0.505044 1.248367
  H 0.524591 -0.489413 -0.213257
  H 0.553832 1.242880 -0.362184
  H 3.796212 1.440696 1.372296
  H 3.950178 -0.294227 1.454629
  H 1.936044 -0.439569 2.921107
  H 1.769356 1.322088 2.862217
  H 2.402181 0.121061 -1.882051
  H 5.087555 1.005107 -0.821576
  H 5.242932 -2.678655 -2.281662
  H 4.809476 -1.790261 -3.727175
  H 7.088002 -0.795022 -2.243806
 23
 27.261744
  C 0.872057 0.409124 0.324033
  C 2.342919 0.352065 0.235367
  C 3.219436 0.409367 1.434230
  C 2.535566 0.517388 2.796097
  H 3.292638 0.585116 3.574421
  C 2.911429 0.235268 -1.021895
  C 4.286181 0.169397 -1.264382
  C 5.081164 -0.591376 -2.085906
  C 4.792188 -1.877448 -2.716886
  H 3.764373 -2.169136 -2.531008
  O 6.282570 -0.005796 -2.253016
  H 0.511815 0.483831 1.341621
  H 0.434709 -0.477152 -0.135100
  H 0.500272 1.258786 -0.253160
  H 3.865425 1.296085 1.301282
  H 3.901041 -0.441095 1.430287
  H 1.911301 -0.344990 3.002370
  H 1.929503 1.422184 2.866287
  H 2.260210 0.302477 -1.888189
  H 5.019668 0.957969 -1.056672
  H 5.452560 -2.658579 -2.346001
  H 4.960437 -1.789832 -3.785458
  H 7.053248 -0.526078 -1.998172
 23
 53.341798
  C 0.809242 0.608499 0.414771
  C 2.257055 0.419947 0.216886
  C 3.213809 0.342046 1.345249
  C 2.633926 0.367762 2.752206
  H 3.434517 0.269265 3.480084
  C 2.727550 0.286529 -1.082028
  C 4.070945 0.111561 -1.425050
  C 4.971742 -0.620888 -2.108307
  C 5.015125 -2.008448 -2.603620
  H 4.053495 -2.489669 -2.451416
  O 6.078760 0.199522 -2.285445
  H 0.530667 0.659067 1.460507
  H 0.252733 -0.201168 -0.059093
  H 0.487196 1.526772 -0.079669
  H 3.940905 1.154547 1.241922
  H 3.790160 -0.581519 1.223770
  H 1.949073 -0.463600 2.905761
  H 2.097572 1.292668 2.948909
  H 2.018964 0.399190 -1.896609
  H 4.997727 0.941974 -1.390436
  H 5.781524 -2.590267 -2.093642
  H 5.244818 -1.999004 -3.668764
  H 6.920284 -0.127200 -1.925157
 23
 66.301474
  C 0.781631 0.645273 0.445444
  C 2.222855 0.397101 0.216919
  C 3.205459 0.288082 1.331795
  C 2.650632 0.358402 2.747852
  H 3.465649 0.255915 3.460127
  C 2.660084 0.242599 -1.084359
  C 3.962230 0.013278 -1.460089
  C 4.896917 -0.648890 -2.099547
  C 5.065422 -2.019395 -2.619107
  H 4.137320 -2.572120 -2.513388
  O 6.002373 0.282147 -2.225151
  H 0.527867 0.710169 1.496006
  H 0.185039 -0.145475 -0.011104
  H 0.484190 1.573403 -0.045174
  H 3.949420 1.081854 1.211252
  H 3.746922 -0.655798 1.208656
  H 1.941616 -0.443769 2.936932
  H 2.164074 1.311870 2.938670
  H 1.945070 0.402380 -1.884869
  H 5.148592 0.949353 -1.540577
  H 5.853480 -2.550207 -2.086284
  H 5.335146 -1.975838 -3.673935
  H 6.845910 -0.005162 -1.818440
 23
 55.256364
  C 0.755334 0.679885 0.460606
  C 2.195853 0.386333 0.201682
  C 3.195284 0.248182 1.304138
  C 2.672584 0.333658 2.735816
  H 3.500375 0.200841 3.429580
  C 2.609327 0.231199 -1.101718
  C 3.878625 -0.047850 -1.496315
  C 4.850871 -0.665200 -2.077052
  C 5.106378 -2.026540 -2.550811
  H 4.213048 -2.633373 -2.471831
  O 6.001357 0.335710 -2.250596
  H 0.520997 0.751779 1.515644
  H 0.132853 -0.093713 0.016422
  H 0.469235 1.626995 -0.014600
  H 3.974700 1.003416 1.170050
  H 3.687980 -0.722063 1.161026
  H 1.942917 -0.451614 2.941615
  H 2.223374 1.298532 2.935247
  H 1.893366 0.450440 -1.885839
  H 5.426815 0.987164 -1.734442
  H 5.911866 -2.510782 -1.995063
  H 5.388889 -1.970392 -3.602176
  H 6.841840 0.060458 -1.831945
 23
 48.769105
  C 0.760334 0.713227 0.486815
  C 2.157146 0.390168 0.206219
  C 3.170806 0.195827 1.279503
  C 2.661209 0.309773 2.697176
  H 3.485533 0.168582 3.389326
  C 2.550028 0.252306 -1.095993
  C 3.807015 -0.054459 -1.501223
  C 4.825512 -0.644516 -2.062015
  C 5.168026 -2.027956 -2.510560
  H 4.309551 -2.673662 -2.424387
  O 5.996340 0.286084 -2.293314
  H 0.558412 0.766273 1.548712
  H 0.101255 -0.030750 0.040100
  H 0.504398 1.668578 0.037194
  H 3.956969 0.953802 1.139021
  H 3.654321 -0.771354 1.138868
  H 1.915680 -0.432454 2.910848
  H 2.234896 1.307003 2.883428
  H 1.825108 0.475129 -1.875818
  H 5.599910 1.065933 -1.841266
  H 5.977052 -2.455127 -1.939177
  H 5.481017 -1.978370 -3.572103
  H 6.827556 -0.039317 -1.850628
 23
 45.086283
  C 0.745777 0.702411 0.451356
  C 2.178322 0.397321 0.202253
  C 3.173581 0.223543 1.305020
  C 2.637683 0.304095 2.728733
  H 3.454067 0.155140 3.431840
  C 2.596484 0.248756 -1.111575
  C 3.852749 -0.025525 -1.519644
  C 4.864847 -0.598291 -2.072954
  C 5.122327 -2.000932 -2.490622
  H 4.223377 -2.593000 -2.355554
  O 6.073063 0.263934 -2.333897
  H 0.512353 0.769917 1.507187
  H 0.111562 -0.065556 0.005666
  H 0.473140 1.646576 -0.023655
  H 3.951191 0.985107 1.187220
  H 3.664432 -0.745855 1.168096
  H 1.892879 -0.466023 2.915894
  H 2.197577 1.277305 2.933595
  H 1.868600 0.427228 -1.895549
  H 5.878274 1.115185 -1.883579
  H 5.921875 -2.451850 -1.906504
  H 5.397232 -2.020591 -3.543564
  H 6.898201 -0.145016 -1.983004
 23
 44.500342
  C 0.728053 0.696313 0.440588
  C 2.162631 0.400955 0.189321
  C 3.154051 0.196977 1.290642
  C 2.619953 0.276873 2.715039
  H 3.433660 0.108903 3.416976
  C 2.586941 0.287632 -1.126729
  C 3.847909 0.040753 -1.534979
  C 4.877378 -0.535208 -2.050638
  C 5.122100 -1.964871 -2.395240
  H 4.224767 -2.544115 -2.204602
  O 6.084855 0.279251 -2.368596
  H 0.492856 0.745593 1.497107
  H 0.097499 -0.067197 -0.018014
  H 0.452290 1.647077 -0.019123
  H 3.947968 0.942189 1.177509
  H 3.624584 -0.781508 1.145914
  H 1.862044 -0.481510 2.897418
  H 2.196475 1.256212 2.925796
  H 1.859357 0.475022 -1.908546
  H 6.105787 1.109300 -1.843555
  H 5.930685 -2.383123 -1.798963
  H 5.368680 -2.053871 -3.451589
  H 6.909068 -0.247771 -2.258976
 23
 46.272936
  C 0.714991 0.587431 0.425035
  C 2.170655 0.382214 0.203020
  C 3.151225 0.274599 1.327943
  C 2.591233 0.388977 2.739926
  H 3.401787 0.295183 3.459196
  C 2.624835 0.264928 -1.099509
  C 3.910374 0.087175 -1.482906
  C 4.909416 -0.508197 -2.040522
  C 5.050940 -1.921063 -2.502718
  H 4.114325 -2.447875 -2.353171
  O 6.182870 0.225821 -2.235536
  H 0.460386 0.653877 1.476067
  H 0.144477 -0.230861 -0.017082
  H 0.384450 1.502964 -0.068424
  H 3.906424 1.054563 1.191942
  H 3.671037 -0.684760 1.233504
  H 1.871047 -0.399222 2.946965
  H 2.114645 1.353325 2.900526
  H 1.901554 0.406855 -1.896102
  H 6.374075 0.882359 -1.530530
  H 5.828155 -2.445211 -1.949905
  H 5.282875 -1.939928 -3.566124
  H 6.927817 -0.379276 -2.444838
