17

H 1.4338433509905915 -0.07474100141336054 0.0413312264536631
C 2.503681 -0.083201 0.024723
C 3.21732 -0.596601 -0.983169
C 4.655718 -0.606511 -1.002621
C 5.378643 -1.120874 -2.012398
C 6.817756 -1.129505 -2.02934
C 7.534302 -1.641788 -3.035046
C 9.024386 -1.66187 -3.074462
H 3.00544 0.351992 0.879084
H 2.704671 -1.029721 -1.833443
H 5.158519 -0.171115 -0.14787
H 4.876509 -1.556386 -2.867383
H 7.325485 -0.695241 -1.176806
H 7.034251 -2.077824 -3.89104
H 9.459878 -1.208915 -2.185245
H 9.38287 -1.115946 -3.948682
H 9.382871 -2.689995 -3.146892
