 16
 0.000000
  C -1.519499 -0.834234 0.888944
  C -0.886214 0.264006 0.034102
  C -1.340033 0.105927 -1.433200
  C -1.180386 1.617080 0.540898
  H -2.126217 1.907324 0.957759
  H -0.563005 2.430543 0.201125
  H -1.145499 -1.806726 0.577093
  H -2.602385 -0.833975 0.781542
  H -1.272360 -0.691222 1.937710
  H 0.202131 0.128735 0.049558
  H -2.425043 0.159600 -1.497421
  H -1.010768 -0.854376 -1.821692
  H -0.919126 0.893855 -2.053088
  O 2.396462 -0.309720 -0.338760
  H 2.821462 0.263175 0.302721
  H 3.030501 -0.488328 -1.035626
 16
 -0.427616
  C -1.499772 -0.813608 0.871418
  C -0.878334 0.274448 0.000182
  C -1.328813 0.105564 -1.467129
  C -1.176260 1.627388 0.499429
  H -1.970381 1.811394 1.196599
  H -0.698893 2.477705 0.049881
  H -1.150123 -1.794148 0.557324
  H -2.585306 -0.793722 0.793524
  H -1.226374 -0.668329 1.913793
  H 0.212952 0.140376 -0.006752
  H -2.413212 0.160601 -1.537395
  H -0.999735 -0.858449 -1.846641
  H -0.901100 0.888748 -2.087554
  O 2.314853 -0.297751 -0.329841
  H 2.722723 0.224942 0.365141
  H 2.993315 -0.485848 -0.980854
 16
 0.101178
  C -1.475639 -0.818504 0.867558
  C -0.879181 0.274893 -0.015196
  C -1.305281 0.097989 -1.484555
  C -1.142485 1.631828 0.487375
  H -1.689941 1.798457 1.394453
  H -0.810089 2.485625 -0.071429
  H -1.102752 -1.794029 0.565059
  H -2.561929 -0.826051 0.788246
  H -1.209631 -0.654405 1.909157
  H 0.217160 0.133883 -0.028007
  H -2.389627 0.136532 -1.574524
  H -0.957513 -0.861176 -1.858888
  H -0.879796 0.887637 -2.098231
  O 2.179306 -0.269450 -0.308510
  H 2.569189 0.197672 0.437395
  H 2.896417 -0.469339 -0.916501
 16
 2.752290
  C -1.422230 -0.854512 0.839752
  C -0.912446 0.278279 -0.047765
  C -1.323735 0.117076 -1.518953
  C -1.081174 1.624918 0.504872
  H -1.367296 1.775266 1.526500
  H -0.907141 2.486205 -0.111198
  H -1.014157 -1.803842 0.508174
  H -2.508554 -0.919110 0.799890
  H -1.131209 -0.687591 1.871602
  H 0.185104 0.111284 -0.086289
  H -2.405585 0.155419 -1.623585
  H -0.974047 -0.833567 -1.902412
  H -0.901489 0.917459 -2.114597
  O 2.040865 -0.208095 -0.274057
  H 2.377369 0.211530 0.524976
  H 2.817049 -0.423293 -0.802519
 16
 11.381526
  C -1.429473 -0.839720 0.861233
  C -0.943821 0.286837 -0.037595
  C -1.227300 0.079414 -1.527069
  C -1.025780 1.646771 0.486244
  H -1.172836 1.831063 1.529904
  H -0.851661 2.489885 -0.152282
  H -0.983914 -1.778713 0.562358
  H -2.518135 -0.949210 0.797163
  H -1.177972 -0.637782 1.896544
  H 0.170710 0.097064 -0.007634
  H -2.295270 0.081296 -1.717272
  H -0.826002 -0.863773 -1.855874
  H -0.792184 0.877008 -2.109254
  O 1.792845 -0.188890 -0.283662
  H 2.203378 0.245604 0.474624
  H 2.575757 -0.435162 -0.822917
 16
 18.149509
  C -1.402974 -0.854286 0.861190
  C -0.909507 0.257620 -0.057178
  C -1.236420 0.057219 -1.545657
  C -0.998834 1.668298 0.501089
  H -1.149779 1.826914 1.547111
  H -0.783662 2.533954 -0.131895
  H -0.982613 -1.808737 0.597141
  H -2.511257 -0.929894 0.797330
  H -1.151762 -0.618309 1.883777
  H 0.214586 0.112407 -0.073051
  H -2.303441 0.038514 -1.700777
  H -0.831516 -0.859964 -1.931001
  H -0.842975 0.866851 -2.126135
  O 1.734502 -0.180032 -0.273465
  H 2.110826 0.263902 0.501325
  H 2.581770 -0.443878 -0.755454
 16
 51.110176
  C -1.405520 -0.820536 0.855774
  C -0.978639 0.328053 -0.034320
  C -1.248493 0.101564 -1.510537
  C -1.018408 1.609209 0.463849
  H -1.113710 1.798043 1.518549
  H -0.832363 2.459843 -0.167431
  H -0.944117 -1.752890 0.537787
  H -2.487245 -0.946038 0.800988
  H -1.137379 -0.633350 1.892952
  H 0.416888 0.082824 -0.127589
  H -2.325463 0.089925 -1.684314
  H -0.840705 -0.850028 -1.843544
  H -0.815170 0.896573 -2.110871
  O 1.550228 -0.168060 -0.201744
  H 1.948660 0.250527 0.567924
  H 2.822672 -0.534415 -0.860128
 16
 44.125562
  C -1.460489 -0.776477 0.884371
  C -1.056712 0.354178 -0.026498
  C -1.299751 0.073923 -1.487476
  C -1.097680 1.614436 0.424471
  H -1.183041 1.834073 1.473756
  H -0.914128 2.452886 -0.226447
  H -0.989962 -1.709636 0.582776
  H -2.537958 -0.912338 0.832466
  H -1.191614 -0.568386 1.915457
  H 0.599143 0.077634 -0.121090
  H -2.374970 0.043094 -1.664759
  H -0.876698 -0.885484 -1.785720
  H -0.869442 0.852263 -2.114522
  O 1.569384 -0.143446 -0.150691
  H 1.972177 0.295761 0.599562
  H 3.116717 -0.629206 -0.947276
 16
 38.027717
  C -1.534122 -0.755207 0.920302
  C -1.168983 0.360167 -0.017924
  C -1.283526 0.017845 -1.477677
  C -1.116729 1.626437 0.397991
  H -1.174324 1.882520 1.442315
  H -0.908309 2.437655 -0.278207
  H -1.025926 -1.675232 0.645581
  H -2.605797 -0.937452 0.865487
  H -1.282069 -0.507017 1.947336
  H 0.700123 0.116282 -0.123911
  H -2.337919 -0.050043 -1.742302
  H -0.819798 -0.941143 -1.697816
  H -0.823016 0.780888 -2.101705
  O 1.643355 -0.141722 -0.131304
  H 2.084421 0.329914 0.588236
  H 3.308954 -0.655194 -1.135407
 16
 35.736514
  C -1.649398 -0.806570 0.895266
  C -1.235456 0.345952 0.028418
  C -1.237054 0.067174 -1.447682
  C -1.093578 1.572669 0.515507
  H -1.197501 1.780675 1.567309
  H -0.815765 2.405021 -0.109665
  H -1.126967 -1.714666 0.600265
  H -2.718486 -0.985894 0.783609
  H -1.442510 -0.605646 1.943460
  H 0.781954 0.158767 -0.111092
  H -2.268766 0.014367 -1.795872
  H -0.759370 -0.884418 -1.671378
  H -0.730944 0.853249 -2.002854
  O 1.695791 -0.159725 -0.140354
  H 2.196063 0.331739 0.513707
  H 3.339401 -0.510474 -1.464114
 16
 34.447635
  C -1.674918 -0.810294 0.888035
  C -1.270266 0.341601 0.018329
  C -1.271185 0.063948 -1.456814
  C -1.045420 1.552360 0.510867
  H -1.101754 1.756953 1.566849
  H -0.777252 2.383393 -0.120555
  H -1.149544 -1.716775 0.593224
  H -2.743769 -0.994779 0.780024
  H -1.466525 -0.606191 1.935046
  H 0.859677 0.147864 -0.119803
  H -2.300211 0.017042 -1.814236
  H -0.800804 -0.892765 -1.675094
  H -0.755840 0.845442 -2.010047
  O 1.759536 -0.196542 -0.042852
  H 2.247438 0.397114 0.531198
  H 3.325371 -0.457318 -1.477533
 16
 34.283808
  C -1.678116 -0.812875 0.880012
  C -1.285903 0.339674 0.008919
  C -1.321098 0.068923 -1.466258
  C -1.026624 1.541667 0.502071
  H -1.047833 1.740941 1.561421
  H -0.769419 2.373945 -0.132093
  H -1.149218 -1.719381 0.581009
  H -2.747254 -1.002874 0.779547
  H -1.463163 -0.607585 1.924312
  H 0.908372 0.083554 -0.141933
  H -2.355437 0.054832 -1.807311
  H -0.883913 -0.901386 -1.695943
  H -0.791106 0.837696 -2.025037
  O 1.816449 -0.206184 0.011951
  H 2.256336 0.469240 0.528929
  H 3.372461 -0.429136 -1.402960
 16
 33.124119
  C -1.727267 -0.797496 0.874019
  C -1.301302 0.337122 -0.004848
  C -1.342009 0.054707 -1.477229
  C -0.930232 1.513149 0.481388
  H -0.918572 1.713393 1.539245
  H -0.633631 2.327820 -0.159919
  H -1.143731 -1.689306 0.649441
  H -2.774935 -1.033712 0.694785
  H -1.601559 -0.550296 1.925824
  H 0.960102 0.060387 -0.080100
  H -2.377105 -0.043238 -1.805496
  H -0.835529 -0.883274 -1.702305
  H -0.876138 0.854699 -2.048355
  O 1.842289 -0.266307 0.137734
  H 2.304971 0.440421 0.592856
  H 3.189184 -0.207020 -1.510404
