20
 0
 C -1.28263850 -0.64939976 -2.41014301
 C -1.49779638 0.54496134 -1.48187879
 C -1.07724927 0.18994795 -0.05919135
 C -0.73538913 1.77220078 -1.97831272
 O 0.04831337 1.72337398 -2.92794091
 C -0.97583298 3.07991145 -1.26658446
 H -1.86962999 -1.51228646 -2.07860752
 H -0.22834727 -0.94706736 -2.43944014
 H -1.58731574 -0.40838926 -3.43438642
 H -2.56478444 0.79827845 -1.49715000
 H 0.00000000 0.00000000 0.00000000
 H -1.60325594 -0.70434080 0.29148239
 H -1.30564104 1.00154614 0.63905336
 H -1.79172133 2.98942143 -0.54557413
 H -1.25304124 3.84182744 -1.99973112
 H -0.06462232 3.37549028 -0.74067105
 O 2.97448175 0.17182727 -0.05419364
 H 3.48878481 -0.67362355 -0.10707899
 H 2.00000000 0.00000000 0.00000000
 H 3.19406979 0.77690170 -0.80766988
