 14
 0.000000
  H 1.403421 0.112258 0.333177
  C 2.478542 0.093815 0.282662
  H 3.022009 0.440889 1.146334
  C 3.105009 -0.358267 -0.841362
  C 4.499583 -0.407225 -0.963416
  C 5.211179 -0.861195 -2.094952
  C 4.589881 -1.356728 -3.330803
  H 3.507839 -1.344545 -3.302339
  O 6.508575 -0.863573 -2.101029
  H 2.493101 -0.691021 -1.668553
  H 5.093163 -0.069139 -0.120967
  H 4.946086 -2.368825 -3.531336
  H 4.947312 -0.764428 -4.175120
  H 6.951969 -0.539633 -1.293445
 14
 0.156586
  H 1.420084 0.203300 0.317895
  C 2.487834 0.072539 0.288217
  H 3.034894 0.261211 1.196918
  C 3.097875 -0.333427 -0.861119
  C 4.492531 -0.406156 -0.974987
  C 5.210828 -0.843410 -2.103132
  C 4.592460 -1.378346 -3.324458
  H 3.511362 -1.371384 -3.295156
  O 6.507479 -0.811786 -2.116531
  H 2.479476 -0.581863 -1.711095
  H 5.061643 -0.061816 -0.120935
  H 4.949822 -2.396494 -3.488172
  H 4.948617 -0.814197 -4.187744
  H 6.945421 -0.464590 -1.313791
 14
 2.118026
  H 1.477253 0.384950 0.324935
  C 2.500163 0.049060 0.297952
  H 3.013339 0.008397 1.245162
  C 3.090824 -0.358203 -0.861757
  C 4.484551 -0.401223 -0.986115
  C 5.210319 -0.834701 -2.105753
  C 4.599715 -1.395836 -3.320395
  H 3.518982 -1.359647 -3.313443
  O 6.506612 -0.775819 -2.123538
  H 2.461871 -0.594618 -1.709440
  H 5.020411 0.030045 -0.149429
  H 4.929028 -2.430054 -3.437078
  H 4.987424 -0.872352 -4.194783
  H 6.934946 -0.423783 -1.317794
 14
 6.352308
  H 1.523091 0.504239 0.255260
  C 2.504640 0.064010 0.297183
  H 2.952756 -0.002978 1.273789
  C 3.107997 -0.466218 -0.811251
  C 4.489205 -0.393042 -0.984447
  C 5.206504 -0.838591 -2.101803
  C 4.588439 -1.335994 -3.342082
  H 3.513194 -1.231705 -3.354480
  O 6.505811 -0.798634 -2.120446
  H 2.487791 -0.924209 -1.573606
  H 5.021293 0.137495 -0.201079
  H 4.854057 -2.382233 -3.479774
  H 5.025410 -0.811018 -4.191877
  H 6.937352 -0.486871 -1.299243
 14
 15.282894
  H 1.586932 0.615070 0.190003
  C 2.530260 0.091944 0.286360
  H 2.910791 -0.013029 1.290227
  C 3.110217 -0.563323 -0.782823
  C 4.475805 -0.413477 -0.984711
  C 5.210781 -0.851938 -2.090836
  C 4.598172 -1.283078 -3.363593
  H 3.528749 -1.147908 -3.380641
  O 6.509451 -0.848501 -2.079104
  H 2.513094 -1.209968 -1.408505
  H 4.900941 0.326130 -0.317592
  H 4.840382 -2.331552 -3.552997
  H 5.058568 -0.724901 -4.180922
  H 6.928805 -0.599989 -1.230885
 14
 27.805880
  H 1.836875 0.881023 0.190313
  C 2.619528 0.138284 0.287091
  H 2.901316 -0.122843 1.296879
  C 3.053883 -0.623963 -0.812292
  C 4.402513 -0.470445 -1.012656
  C 5.200880 -0.860083 -2.100671
  C 4.630913 -1.286687 -3.391940
  H 3.559859 -1.182755 -3.422388
  O 6.491430 -0.769581 -2.062738
  H 2.429748 -1.353735 -1.309169
  H 4.750111 0.265168 -0.283130
  H 4.892529 -2.331085 -3.572745
  H 5.099104 -0.714279 -4.205817
  H 6.876944 -0.480495 -1.206710
 14
 43.799600
  H 2.115404 1.039103 0.148554
  C 2.782500 0.194059 0.263880
  H 2.999256 -0.103448 1.274883
  C 2.951515 -0.752295 -0.797014
  C 4.280788 -0.574084 -1.053543
  C 5.168692 -0.875939 -2.091356
  C 4.675360 -1.257226 -3.430839
  H 3.596113 -1.204498 -3.497109
  O 6.459409 -0.749551 -1.973670
  H 2.222133 -1.411026 -1.232669
  H 4.499351 0.215612 -0.279672
  H 5.003281 -2.272969 -3.653672
  H 5.134116 -0.616515 -4.183881
  H 6.793728 -0.573671 -1.067269
 14
 52.945225
  H 2.338240 1.130599 0.097920
  C 2.926803 0.229184 0.215901
  H 3.162008 -0.058683 1.230042
  C 2.856366 -0.818696 -0.806966
  C 4.155832 -0.666562 -1.111590
  C 5.121699 -0.917679 -2.065361
  C 4.716824 -1.233656 -3.458055
  H 3.644182 -1.166804 -3.593548
  O 6.412919 -0.775962 -1.868490
  H 2.063657 -1.460845 -1.129163
  H 4.280567 0.249524 -0.251099
  H 5.051345 -2.243865 -3.698695
  H 5.229197 -0.562308 -4.147258
  H 6.690068 -0.632919 -0.945330
 14
 45.564984
  H 2.397972 1.149213 0.116337
  C 3.007322 0.262391 0.231478
  H 3.182120 -0.070603 1.248835
  C 2.846034 -0.820089 -0.789577
  C 4.094372 -0.730397 -1.193642
  C 5.103951 -0.946491 -2.088966
  C 4.748109 -1.253010 -3.503310
  H 3.682889 -1.170503 -3.682055
  O 6.393550 -0.799703 -1.845829
  H 1.997403 -1.406587 -1.070842
  H 4.135996 0.394924 -0.098494
  H 5.077144 -2.267116 -3.728297
  H 5.298656 -0.587750 -4.168167
  H 6.639947 -0.666561 -0.911331
 14
 35.431160
  H 2.314677 1.082023 0.164959
  C 3.027039 0.272811 0.254346
  H 3.141796 -0.111538 1.263619
  C 2.917820 -0.808879 -0.779273
  C 4.129243 -0.769863 -1.271057
  C 5.148003 -0.984346 -2.144273
  C 4.788413 -1.281111 -3.558302
  H 3.723821 -1.197124 -3.742074
  O 6.426093 -0.851775 -1.900745
  H 2.053878 -1.402822 -1.017535
  H 4.105981 0.557115 -0.013313
  H 5.117421 -2.298809 -3.770561
  H 5.340505 -0.619424 -4.223892
  H 6.679747 -0.724586 -0.966481
 14
 29.047609
  H 2.215176 1.039083 0.308413
  C 3.008954 0.304478 0.333512
  H 3.030336 -0.234173 1.279898
  C 2.979788 -0.672720 -0.798327
  C 4.169148 -0.704742 -1.338098
  C 5.177132 -0.959776 -2.207542
  C 4.799379 -1.326697 -3.601788
  H 3.727987 -1.298296 -3.762298
  O 6.456041 -0.853319 -1.979734
  H 2.084710 -1.191237 -1.105422
  H 4.004001 0.739686 0.223974
  H 5.174681 -2.336664 -3.771507
  H 5.300101 -0.669905 -4.311610
  H 6.722971 -0.659276 -1.061744
 14
 12.164577
  H 1.852204 0.713791 0.051754
  C 2.894729 0.478952 0.257976
  H 2.989855 0.288569 1.323203
  C 3.272953 -0.752508 -0.500161
  C 4.218570 -0.928088 -1.343014
  C 5.188149 -1.124483 -2.284712
  C 4.836169 -1.133799 -3.716562
  H 3.796594 -0.877785 -3.879589
  O 6.444050 -1.318503 -1.987187
  H 2.627784 -1.604401 -0.265918
  H 3.526813 1.314742 -0.021216
  H 5.045283 -2.120394 -4.135816
  H 5.490523 -0.444708 -4.254731
  H 6.666727 -1.314945 -1.036300
