 13
 0.000000
  H 3.328974 -0.468949 -1.113588
  C 4.402516 -0.457514 -1.086708
  C 5.195038 -0.881066 -2.144489
  C 4.659813 -1.392498 -3.419029
  C 3.156755 -1.453539 -3.573706
  H 2.908455 -1.847312 -4.554381
  O 6.496139 -0.843095 -2.052454
  H 4.884306 -0.098073 -0.191345
  H 5.100529 -2.385676 -3.591727
  H 5.101458 -0.795196 -4.230512
  H 2.702927 -0.469104 -3.481426
  H 2.701483 -2.099717 -2.826311
  H 6.832516 -0.501477 -1.200539
 13
 1.544522
  H 3.335801 -0.689948 -1.042660
  C 4.390758 -0.484301 -1.047812
  C 5.189556 -0.846811 -2.118048
  C 4.645775 -1.347808 -3.398461
  C 3.148451 -1.408539 -3.578795
  H 2.920474 -1.849707 -4.544528
  O 6.483730 -0.668969 -2.114413
  H 4.789817 0.111570 -0.239797
  H 5.073771 -2.357462 -3.519804
  H 5.118067 -0.798436 -4.223711
  H 2.701867 -0.415273 -3.567061
  H 2.668056 -2.003244 -2.805302
  H 6.908657 -0.677347 -1.234417
 13
 7.333216
  H 3.271194 -0.521192 -1.096829
  C 4.337669 -0.395764 -1.052364
  C 5.151310 -0.788336 -2.089501
  C 4.642736 -1.328042 -3.366615
  C 3.155367 -1.458202 -3.566732
  H 2.955956 -1.879467 -4.548090
  O 6.457340 -0.564085 -2.064072
  H 4.753528 0.103635 -0.193925
  H 5.141008 -2.301707 -3.512713
  H 5.089578 -0.747389 -4.190097
  H 2.649537 -0.494710 -3.518856
  H 2.704310 -2.101023 -2.813288
  H 6.990648 -1.009843 -1.384352
 13
 11.517097
  H 3.218161 -0.389818 -1.141011
  C 4.281338 -0.316113 -1.056361
  C 5.123467 -0.719364 -2.071745
  C 4.653770 -1.324763 -3.327817
  C 3.176205 -1.496627 -3.554440
  H 3.001512 -1.915625 -4.540568
  O 6.431661 -0.507558 -1.942987
  H 4.697841 0.032889 -0.126032
  H 5.177662 -2.276314 -3.501365
  H 5.090776 -0.714545 -4.141279
  H 2.638193 -0.552781 -3.475908
  H 2.732734 -2.179228 -2.825961
  H 7.017881 -1.220478 -1.650884
 13
 5.655049
  H 3.171390 -0.371082 -1.164200
  C 4.237386 -0.311730 -1.041240
  C 5.117313 -0.722677 -2.027741
  C 4.687569 -1.331790 -3.303159
  C 3.206220 -1.494737 -3.552982
  H 3.049478 -1.906199 -4.546074
  O 6.393941 -0.516343 -1.803056
  H 4.639226 0.004191 -0.090849
  H 5.198356 -2.291775 -3.465125
  H 5.125007 -0.698152 -4.094091
  H 2.677224 -0.548777 -3.481479
  H 2.751363 -2.186879 -2.845416
  H 7.041947 -1.218975 -1.994259
 13
 1.761568
  H 3.147077 -0.405230 -1.107438
  C 4.215096 -0.356238 -1.017071
  C 5.103655 -0.802737 -1.996044
  C 4.716551 -1.348190 -3.306511
  C 3.229447 -1.484405 -3.577259
  H 3.077262 -1.874467 -4.579268
  O 6.350522 -0.659425 -1.656610
  H 4.689086 0.018120 -0.119785
  H 5.201978 -2.322872 -3.450801
  H 5.167073 -0.707090 -4.078904
  H 2.717776 -0.528533 -3.506254
  H 2.759825 -2.175128 -2.880756
  H 7.072998 -1.046913 -2.189000
 13
 8.451992
  H 3.139389 -0.464694 -0.950484
  C 4.202886 -0.344556 -1.027362
  C 5.062729 -0.800497 -2.022166
  C 4.714602 -1.364517 -3.333850
  C 3.221732 -1.482599 -3.603413
  H 3.064488 -1.799082 -4.632236
  O 6.297296 -0.592977 -1.650580
  H 4.853659 0.095737 -0.277448
  H 5.186045 -2.349862 -3.471820
  H 5.171883 -0.712421 -4.089656
  H 2.707190 -0.537547 -3.446978
  H 2.763345 -2.243795 -2.977685
  H 7.064782 -1.099792 -1.990188
 13
 25.597633
  H 3.152771 -0.449079 -0.743316
  C 4.190127 -0.439872 -0.974339
  C 5.002892 -0.796364 -2.042523
  C 4.703588 -1.311540 -3.378497
  C 3.218425 -1.482891 -3.657911
  H 3.077110 -1.974060 -4.618529
  O 6.242835 -0.514075 -1.659372
  H 5.068816 -0.058324 -0.377322
  H 5.181255 -2.294669 -3.442766
  H 5.160487 -0.687732 -4.152481
  H 2.711163 -0.522218 -3.686043
  H 2.741072 -2.094462 -2.894489
  H 7.019947 -1.078972 -1.864450
 13
 60.358560
  H 3.157325 -0.284827 -0.592136
  C 4.122580 -0.375799 -1.026018
  C 4.878114 -0.773838 -2.018843
  C 4.675089 -1.317653 -3.378901
  C 3.206208 -1.546256 -3.712882
  H 3.117063 -1.959434 -4.713356
  O 6.192965 -0.492837 -1.560235
  H 5.501208 -0.070670 -0.570412
  H 5.213595 -2.268894 -3.438142
  H 5.120949 -0.630520 -4.102875
  H 2.651299 -0.612880 -3.684394
  H 2.752556 -2.243627 -3.014336
  H 6.920858 -1.139445 -1.709327
 13
 58.331534
  H 3.024942 -0.025827 -0.775126
  C 4.003262 -0.196416 -1.141068
  C 4.815621 -0.707693 -2.015478
  C 4.697638 -1.387423 -3.324836
  C 3.250858 -1.669363 -3.710367
  H 3.218544 -2.186207 -4.658869
  O 6.133103 -0.398563 -1.504238
  H 5.524259 0.098900 -0.651288
  H 5.240717 -2.334825 -3.255824
  H 5.172373 -0.762501 -4.082267
  H 2.684487 -0.748520 -3.809741
  H 2.770735 -2.296590 -2.967870
  H 6.851290 -1.071675 -1.564810
 13
 51.771593
  H 3.066056 -0.250560 -0.589225
  C 4.041356 -0.378085 -1.041829
  C 4.816585 -0.760277 -2.003097
  C 4.659355 -1.288279 -3.365330
  C 3.207435 -1.544958 -3.728568
  H 3.149203 -1.947630 -4.734985
  O 6.210959 -0.502572 -1.533629
  H 5.809215 -0.202717 -0.610197
  H 5.225545 -2.227197 -3.434898
  H 5.103163 -0.562114 -4.047472
  H 2.625811 -0.635667 -3.692225
  H 2.761498 -2.282640 -3.049938
  H 6.893796 -1.152854 -1.736179
 13
 46.668022
  H 3.039678 -0.269153 -0.637829
  C 4.005826 -0.384610 -1.050784
  C 4.819900 -0.774692 -1.969633
  C 4.671118 -1.307094 -3.354127
  C 3.213833 -1.554211 -3.728865
  H 3.157236 -1.960703 -4.734590
  O 6.209283 -0.485621 -1.554022
  H 5.908978 -0.101350 -0.668829
  H 5.221805 -2.244599 -3.418794
  H 5.118089 -0.586367 -4.045400
  H 2.641549 -0.635936 -3.700260
  H 2.758021 -2.273174 -3.050574
  H 6.884964 -1.181803 -1.712246
 13
 41.298787
  H 2.971967 -0.314224 -0.683668
  C 3.954703 -0.385858 -1.069220
  C 4.812933 -0.763965 -1.945731
  C 4.675070 -1.300925 -3.339591
  C 3.229973 -1.561017 -3.722713
  H 3.187658 -2.018104 -4.707084
  O 6.217625 -0.477083 -1.599979
  H 6.116960 -0.082302 -0.699726
  H 5.233002 -2.231417 -3.408202
  H 5.116567 -0.567369 -4.024494
  H 2.661654 -0.636078 -3.751205
  H 2.757679 -2.238391 -3.015663
  H 6.848433 -1.216369 -1.740654
 13
 39.861806
  H 2.938245 -0.305214 -0.732233
  C 3.936208 -0.400313 -1.063061
  C 4.812453 -0.729868 -1.940096
  C 4.676810 -1.289140 -3.328956
  C 3.229523 -1.566006 -3.714548
  H 3.189308 -1.971445 -4.721786
  O 6.223790 -0.471838 -1.613325
  H 6.197890 -0.079827 -0.709701
  H 5.247096 -2.218424 -3.388991
  H 5.109745 -0.563831 -4.019690
  H 2.636231 -0.652883 -3.691751
  H 2.778551 -2.289610 -3.038430
  H 6.808375 -1.254703 -1.745362
 13
 38.927565
  H 2.879546 -0.364988 -0.809166
  C 3.906183 -0.425129 -1.049876
  C 4.807287 -0.723894 -1.913370
  C 4.671860 -1.293664 -3.309505
  C 3.229313 -1.555933 -3.709845
  H 3.195767 -1.954103 -4.720418
  O 6.215877 -0.458205 -1.628461
  H 6.331320 -0.040334 -0.743469
  H 5.230359 -2.230126 -3.360906
  H 5.120524 -0.571615 -3.998701
  H 2.644992 -0.640475 -3.686976
  H 2.766481 -2.276561 -3.044765
  H 6.784714 -1.258074 -1.732473
