 32
 0.000000
  C 0.983575 0.134803 0.386678
  C 2.460951 0.140195 0.399644
  C 3.234683 0.611656 1.573007
  C 2.448824 1.099301 2.787116
  C 3.394679 1.545572 3.897730
  C 3.081586 -0.323379 -0.754571
  C 4.457978 -0.411212 -0.973713
  C 5.125625 -0.864880 -2.104584
  C 4.614873 -1.386164 -3.403838
  C 3.122672 -1.501137 -3.691384
  C 2.899187 -2.063404 -5.092789
  O 6.450062 -0.866083 -2.107960
  H 0.540793 0.503488 1.304712
  H 0.617989 -0.878409 0.214488
  H 0.617652 0.747296 -0.438466
  H 3.892198 1.424605 1.244121
  H 3.892433 -0.202713 1.897862
  H 1.811281 0.300820 3.171350
  H 1.811113 1.941587 2.512242
  H 4.030636 0.724689 4.222494
  H 2.827282 1.891314 4.758621
  H 4.030409 2.363123 3.564277
  H 2.421850 -0.640470 -1.543924
  H 5.086425 -0.082158 -0.154069
  H 5.069535 -2.375263 -3.532497
  H 5.070012 -0.760654 -4.180514
  H 2.648916 -0.520234 -3.637875
  H 2.648402 -2.172738 -2.974766
  H 3.338652 -1.416211 -5.848485
  H 1.834452 -2.145240 -5.297568
  H 3.338170 -3.053687 -5.191427
  H 6.827824 -0.531164 -1.272792
 32
 -0.330605
  C 0.955937 0.245479 0.376639
  C 2.430597 0.217547 0.364408
  C 3.226146 0.626483 1.544844
  C 2.462391 1.054597 2.796992
  C 3.433236 1.396704 3.921013
  C 3.040639 -0.236931 -0.800917
  C 4.417592 -0.329774 -0.999842
  C 5.107222 -0.790069 -2.117755
  C 4.614715 -1.357022 -3.402506
  C 3.128610 -1.525418 -3.684320
  C 2.933571 -2.165714 -5.056791
  O 6.425911 -0.761655 -2.107491
  H 0.545237 0.757775 1.237706
  H 0.577060 -0.779784 0.376336
  H 0.575947 0.702041 -0.535242
  H 3.885609 1.451224 1.246579
  H 3.890772 -0.202425 1.818844
  H 1.807196 0.250423 3.132282
  H 1.850244 1.933987 2.587167
  H 4.045059 0.536489 4.182804
  H 2.889393 1.703787 4.810371
  H 4.091581 2.212988 3.631998
  H 2.379285 -0.529924 -1.599641
  H 5.047182 0.004559 -0.186234
  H 5.106000 -2.334785 -3.505143
  H 5.058724 -0.742994 -4.194537
  H 2.631213 -0.556629 -3.686013
  H 2.672326 -2.171903 -2.935650
  H 3.366458 -1.547612 -5.839807
  H 1.872745 -2.287642 -5.270704
  H 3.401475 -3.148017 -5.099025
  H 6.821397 -0.399995 -1.292326
 32
 -0.616186
  C 0.966023 0.335740 0.351385
  C 2.439332 0.286748 0.330595
  C 3.233596 0.639879 1.532045
  C 2.463284 0.998352 2.800132
  C 3.426582 1.252837 3.956970
  C 3.047752 -0.150044 -0.841863
  C 4.424831 -0.244646 -1.039514
  C 5.114824 -0.724056 -2.148769
  C 4.621452 -1.335119 -3.412578
  C 3.135125 -1.542987 -3.671595
  C 2.938782 -2.244843 -5.013446
  O 6.433689 -0.684896 -2.143860
  H 0.578540 0.985802 1.126442
  H 0.581987 -0.669522 0.547111
  H 0.568559 0.632662 -0.617144
  H 3.887012 1.482120 1.277195
  H 3.902773 -0.195085 1.765768
  H 1.790132 0.184487 3.073580
  H 1.866302 1.899061 2.641977
  H 4.021440 0.367690 4.171239
  H 2.876476 1.512523 4.857741
  H 4.101699 2.074107 3.728112
  H 2.387665 -0.421037 -1.647983
  H 5.054784 0.108878 -0.232038
  H 5.130896 -2.302313 -3.492529
  H 5.044307 -0.735825 -4.226676
  H 2.619190 -0.583976 -3.710511
  H 2.697804 -2.164111 -2.889687
  H 3.354039 -1.652423 -5.827519
  H 1.879220 -2.394052 -5.211267
  H 3.423617 -3.219380 -5.018487
  H 6.829218 -0.288155 -1.344743
 32
 -0.948146
  C 0.986878 0.434762 0.329151
  C 2.457192 0.343615 0.303352
  C 3.246675 0.655609 1.520183
  C 2.463599 0.940422 2.797452
  C 3.412260 1.130077 3.977938
  C 3.064200 -0.093414 -0.869998
  C 4.440437 -0.212793 -1.058193
  C 5.129706 -0.700127 -2.164860
  C 4.633063 -1.331869 -3.418428
  C 3.143580 -1.538052 -3.670911
  C 2.941529 -2.285470 -4.988896
  O 6.448297 -0.656640 -2.163677
  H 0.637000 1.222920 0.991327
  H 0.582233 -0.501701 0.720277
  H 0.574123 0.571920 -0.666402
  H 3.880336 1.525760 1.304036
  H 3.934291 -0.171633 1.718972
  H 1.787337 0.110970 3.015289
  H 1.867012 1.843453 2.685929
  H 4.005104 0.235648 4.149308
  H 2.849402 1.339286 4.887677
  H 4.087074 1.960627 3.804432
  H 2.407025 -0.341569 -1.682383
  H 5.071581 0.131746 -0.245249
  H 5.137311 -2.304340 -3.478831
  H 5.058907 -0.751954 -4.244094
  H 2.634753 -0.576745 -3.743548
  H 2.700974 -2.128279 -2.866704
  H 3.365101 -1.725997 -5.824620
  H 1.888462 -2.429177 -5.181840
  H 3.413671 -3.262360 -4.958605
  H 6.843318 -0.249631 -1.370511
 32
 -1.127034
  C 1.021890 0.570653 0.294491
  C 2.482662 0.388448 0.285000
  C 3.262578 0.667417 1.514315
  C 2.463475 0.872690 2.799784
  C 3.398457 1.020907 3.997042
  C 3.084268 -0.072170 -0.880629
  C 4.459245 -0.219136 -1.062810
  C 5.145643 -0.696437 -2.175600
  C 4.646766 -1.340134 -3.421603
  C 3.156737 -1.542822 -3.670795
  C 2.951568 -2.320182 -4.969608
  O 6.463189 -0.631012 -2.187403
  H 0.735678 1.460701 0.848258
  H 0.559804 -0.269669 0.816657
  H 0.608153 0.606366 -0.709088
  H 3.859709 1.570082 1.336253
  H 3.980443 -0.139866 1.681299
  H 1.802785 0.018089 2.968063
  H 1.845307 1.767428 2.730577
  H 4.008095 0.131196 4.128317
  H 2.824705 1.171540 4.909775
  H 4.058460 1.874016 3.872118
  H 2.426306 -0.296883 -1.700869
  H 5.092692 0.115715 -0.248838
  H 5.144383 -2.316559 -3.466014
  H 5.077931 -0.775424 -4.255669
  H 2.654409 -0.579799 -3.766849
  H 2.709713 -2.109971 -2.853382
  H 3.382652 -1.786517 -5.816076
  H 1.896539 -2.458276 -5.162865
  H 3.414635 -3.301656 -4.913432
  H 6.860893 -0.225390 -1.395064
 32
 -0.880552
  C 1.083306 0.746010 0.237962
  C 2.520365 0.425738 0.272611
  C 3.283407 0.677583 1.517919
  C 2.460171 0.810710 2.799425
  C 3.372957 0.925597 4.015893
  C 3.113949 -0.090880 -0.872943
  C 4.484680 -0.295514 -1.036397
  C 5.167748 -0.735683 -2.167459
  C 4.664063 -1.359844 -3.421058
  C 3.173034 -1.542884 -3.674723
  C 2.961472 -2.323666 -4.969681
  O 6.482556 -0.636807 -2.196211
  H 0.881510 1.695055 0.729353
  H 0.530873 -0.007541 0.804781
  H 0.689866 0.759405 -0.774088
  H 3.844271 1.610903 1.379137
  H 4.026989 -0.108426 1.667543
  H 1.819405 -0.065308 2.917028
  H 1.820200 1.692189 2.759838
  H 3.999921 0.042675 4.118590
  H 2.782604 1.024403 4.923604
  H 4.017315 1.798106 3.938469
  H 2.459265 -0.284165 -1.704276
  H 5.118849 -0.002380 -0.208247
  H 5.145597 -2.344369 -3.466989
  H 5.108245 -0.798391 -4.250608
  H 2.685579 -0.572675 -3.777528
  H 2.714846 -2.099581 -2.857006
  H 3.408165 -1.804679 -5.814506
  H 1.900533 -2.443515 -5.170739
  H 3.405304 -3.313961 -4.904170
  H 6.885859 -0.267299 -1.388550
 32
 -0.026324
  C 1.204682 1.012067 0.171370
  C 2.580955 0.491047 0.257742
  C 3.318402 0.639688 1.537389
  C 2.449719 0.747552 2.796796
  C 3.316709 0.750313 4.051725
  C 3.151774 -0.078200 -0.875069
  C 4.506684 -0.376012 -1.012105
  C 5.185476 -0.760626 -2.166210
  C 4.676514 -1.343895 -3.440437
  C 3.184768 -1.544662 -3.682380
  C 2.969169 -2.348038 -4.962001
  O 6.494948 -0.618204 -2.210699
  H 1.108171 1.959614 0.703383
  H 0.518375 0.319327 0.663706
  H 0.875934 1.124999 -0.857016
  H 3.920351 1.553396 1.470046
  H 4.019017 -0.189810 1.675547
  H 1.769363 -0.104658 2.841713
  H 1.845137 1.655288 2.782143
  H 3.880022 -0.173144 4.138922
  H 2.697002 0.847378 4.938208
  H 4.022544 1.582787 4.040289
  H 2.511050 -0.187681 -1.732751
  H 5.141239 -0.163064 -0.156856
  H 5.175479 -2.319030 -3.522717
  H 5.106349 -0.748939 -4.253305
  H 2.686167 -0.583905 -3.797752
  H 2.733918 -2.091800 -2.853966
  H 3.400527 -1.838813 -5.822167
  H 1.906981 -2.483740 -5.146821
  H 3.420791 -3.336534 -4.884227
  H 6.905925 -0.302126 -1.383104
 32
 -0.430327
  C 1.172271 0.890889 0.179327
  C 2.582665 0.470848 0.245872
  C 3.329218 0.635467 1.516003
  C 2.484735 0.827102 2.775246
  C 3.364632 0.817606 4.018758
  C 3.165773 -0.069901 -0.896507
  C 4.522984 -0.367327 -1.025706
  C 5.211344 -0.752869 -2.174294
  C 4.707411 -1.321124 -3.452284
  C 3.214883 -1.505370 -3.695837
  C 2.993474 -2.271824 -4.997260
  O 6.527325 -0.652362 -2.194292
  H 1.011145 1.823259 0.715572
  H 0.549530 0.142815 0.678209
  H 0.821444 0.984717 -0.845517
  H 3.979566 1.513608 1.408371
  H 3.991244 -0.217753 1.672692
  H 1.751309 0.023751 2.852621
  H 1.944046 1.775039 2.739978
  H 3.891125 -0.129321 4.117634
  H 2.758668 0.959589 4.912333
  H 4.101698 1.619895 3.981161
  H 2.526239 -0.182719 -1.754286
  H 5.151389 -0.148876 -0.169354
  H 5.194636 -2.301615 -3.539127
  H 5.141331 -0.724703 -4.264217
  H 2.725479 -0.537191 -3.785013
  H 2.764677 -2.069411 -2.878666
  H 3.431352 -1.743006 -5.838562
  H 1.927489 -2.390908 -5.190457
  H 3.438612 -3.260912 -4.947119
  H 6.928253 -0.317118 -1.370797
 32
 0.267114
  C 1.149826 0.822152 0.207520
  C 2.561271 0.403888 0.276508
  C 3.320948 0.577411 1.536733
  C 2.500592 0.874953 2.791620
  C 3.390248 0.853021 4.032551
  C 3.138262 -0.141011 -0.865346
  C 4.491881 -0.437738 -0.999008
  C 5.185116 -0.743751 -2.167877
  C 4.696704 -1.282030 -3.462976
  C 3.211001 -1.525496 -3.700919
  C 3.013060 -2.276538 -5.015960
  O 6.491125 -0.572445 -2.191000
  H 0.952129 1.687503 0.834586
  H 0.519491 0.012297 0.586985
  H 0.837124 1.021197 -0.814293
  H 4.030978 1.399607 1.391879
  H 3.922988 -0.314126 1.725132
  H 1.712125 0.128609 2.905084
  H 2.028983 1.856665 2.721700
  H 3.848945 -0.123694 4.166597
  H 2.804802 1.072684 4.921641
  H 4.180129 1.597558 3.958929
  H 2.497102 -0.254626 -1.723428
  H 5.118493 -0.252031 -0.135021
  H 5.225414 -2.236158 -3.587954
  H 5.098198 -0.638543 -4.254261
  H 2.678624 -0.576295 -3.769395
  H 2.791807 -2.121299 -2.892358
  H 3.418256 -1.710129 -5.851696
  H 1.955331 -2.441461 -5.201632
  H 3.504641 -3.244831 -4.989765
  H 6.881936 -0.265488 -1.351501
 32
 1.828510
  C 1.149468 0.807081 0.198331
  C 2.548184 0.351883 0.295620
  C 3.323065 0.570563 1.540152
  C 2.519216 0.915947 2.793700
  C 3.423130 0.926604 4.022717
  C 3.109961 -0.257550 -0.820911
  C 4.458078 -0.603234 -0.937235
  C 5.154639 -0.789136 -2.131102
  C 4.683850 -1.263544 -3.458735
  C 3.205445 -1.534415 -3.714223
  C 3.032518 -2.224238 -5.065037
  O 6.446868 -0.526887 -2.158641
  H 0.942222 1.645720 0.855261
  H 0.490474 -0.010388 0.503468
  H 0.881988 1.060071 -0.824345
  H 4.034183 1.385228 1.355637
  H 3.925232 -0.316732 1.755306
  H 1.726457 0.180481 2.940067
  H 2.055840 1.898859 2.697545
  H 3.874260 -0.050158 4.182694
  H 2.850404 1.181108 4.911045
  H 4.218247 1.660790 3.915084
  H 2.475469 -0.368361 -1.683047
  H 5.079526 -0.470612 -0.059555
  H 5.234549 -2.197639 -3.629004
  H 5.072831 -0.570770 -4.211350
  H 2.649857 -0.596809 -3.739085
  H 2.801442 -2.180506 -2.935620
  H 3.424123 -1.605870 -5.869275
  H 1.979664 -2.408598 -5.262633
  H 3.550793 -3.179947 -5.085060
  H 6.835544 -0.279085 -1.298695
