 9
 0.000000
  C 0.999617 0.147982 0.418811
  C 2.437335 0.124188 0.359402
  H 3.004743 0.467277 1.213808
  C 3.087938 -0.327773 -0.766143
  H 4.163627 -0.363921 -0.856284
  H 0.611470 0.525694 1.360441
  H 0.576279 -0.846203 0.201320
  H 0.575734 0.714971 -0.425734
  H 2.524137 -0.671944 -1.622473
 9
 -0.340124
  C 0.987910 0.132927 0.443481
  C 2.423215 0.118398 0.325254
  H 3.009518 0.499111 1.150342
  C 3.091238 -0.327202 -0.780561
  H 4.157391 -0.478982 -0.745298
  H 0.629423 0.578512 1.360436
  H 0.540717 -0.865133 0.302093
  H 0.558489 0.622723 -0.449474
  H 2.589397 -0.508935 -1.720098
 9
 2.081141
  C 0.964199 0.116381 0.457502
  C 2.405566 0.091854 0.258334
  H 2.967700 0.537674 1.081670
  C 3.087362 -0.331052 -0.826588
  H 4.140025 -0.483738 -0.614151
  H 0.669854 0.585189 1.393497
  H 0.507385 -0.871632 0.367679
  H 0.551302 0.682725 -0.399405
  H 2.702678 -0.547726 -1.811842
 9
 7.972337
  C 0.945877 0.119665 0.468625
  C 2.385285 0.042981 0.187639
  H 2.900924 0.524241 1.026882
  C 3.097113 -0.362544 -0.870247
  H 4.123588 -0.416714 -0.512283
  H 0.731433 0.596674 1.416775
  H 0.459793 -0.865083 0.447631
  H 0.532123 0.746264 -0.332905
  H 2.830393 -0.587116 -1.886372
 9
 12.664161
  C 0.957952 0.123875 0.479717
  C 2.410234 0.070678 0.193478
  H 2.906585 0.518879 1.056757
  C 3.070602 -0.320635 -0.898058
  H 4.061393 -0.428719 -0.459957
  H 0.739257 0.605283 1.426357
  H 0.491194 -0.859805 0.458034
  H 0.558722 0.729987 -0.346955
  H 2.831763 -0.610530 -1.899078
 9
 17.735346
  C 0.976068 0.136631 0.478760
  C 2.432133 0.112498 0.201094
  H 2.942515 0.552671 1.059446
  C 3.049709 -0.342401 -0.898719
  H 4.008497 -0.423357 -0.389743
  H 0.747455 0.565183 1.446731
  H 0.522995 -0.853320 0.418747
  H 0.554837 0.749724 -0.334254
  H 2.811056 -0.636730 -1.894804
 9
 18.350610
  C 0.985668 0.152348 0.487545
  C 2.449535 0.154446 0.203607
  H 2.937254 0.604258 1.069536
  C 3.036619 -0.289864 -0.909899
  H 3.941262 -0.577829 -0.337703
  H 0.755258 0.582238 1.458306
  H 0.578351 -0.856032 0.453887
  H 0.537072 0.713085 -0.341086
  H 2.838070 -0.596028 -1.907379
 9
 24.406311
  C 1.009711 0.151477 0.476350
  C 2.477092 0.169245 0.220196
  H 3.008807 0.615012 1.061216
  C 3.048827 -0.263997 -0.923661
  H 3.832144 -0.624446 -0.219550
  H 0.763647 0.606064 1.428972
  H 0.615163 -0.865340 0.466031
  H 0.517675 0.691635 -0.336480
  H 2.795624 -0.571846 -1.906961
 9
 26.525366
  C 1.007838 0.161968 0.501304
  C 2.469510 0.203901 0.191120
  H 3.004437 0.623893 1.043443
  C 3.084305 -0.227707 -0.930305
  H 3.738821 -0.706186 -0.189739
  H 0.778591 0.626005 1.454868
  H 0.624325 -0.858453 0.517601
  H 0.481026 0.680870 -0.304800
  H 2.884305 -0.582277 -1.923857
 9
 28.225797
  C 0.998056 0.164491 0.538016
  C 2.432526 0.154832 0.164847
  H 2.963845 0.635240 0.994121
  C 3.116897 -0.197943 -0.934044
  H 3.644295 -0.795484 -0.185623
  H 0.820834 0.689753 1.475476
  H 0.626303 -0.850309 0.636704
  H 0.439790 0.636420 -0.275510
  H 3.027808 -0.516443 -1.955057
 9
 32.946530
  C 1.024723 0.153008 0.537913
  C 2.479796 0.168792 0.210653
  H 3.051373 0.669596 0.998475
  C 3.113388 -0.144991 -0.930478
  H 3.446026 -0.909701 -0.124672
  H 0.820734 0.730006 1.430163
  H 0.692256 -0.872099 0.708134
  H 0.453548 0.535485 -0.307947
  H 2.980108 -0.437856 -1.950020
 9
 39.387008
  C 1.055452 0.104099 0.532927
  C 2.529086 0.140824 0.229897
  H 3.099294 0.636393 1.025377
  C 3.103087 -0.062244 -0.953799
  H 3.219593 -0.910733 0.037588
  H 0.833309 0.719274 1.401731
  H 0.740628 -0.911929 0.744295
  H 0.487829 0.459005 -0.324617
  H 2.949283 -0.363066 -1.971149
