 26
 0.000000
  H 1.526235 0.057076 0.124201
  C 2.600548 0.062318 0.031289
  C 3.349120 -0.011076 1.332060
  C 2.435503 -0.079926 2.552111
  C 3.236487 -0.152979 3.846812
  C 3.170494 0.130556 -1.178025
  C 2.379338 0.202873 -2.459653
  C 0.861994 0.195444 -2.327950
  H 0.405014 0.251015 -3.312856
  C 4.617006 0.139227 -1.331630
  C 5.293006 0.204007 -2.479818
  O 6.646593 0.209581 -2.578564
  H 3.996659 0.866563 1.433038
  H 3.996657 -0.894496 1.333664
  H 1.793289 -0.960788 2.480767
  H 1.793280 0.803368 2.580318
  H 3.870113 -1.037590 3.858422
  H 2.568870 -0.201367 4.704256
  H 3.870108 0.724712 3.957861
  H 2.674460 -0.641109 -3.090880
  H 2.674459 1.112511 -2.991931
  H 0.519108 1.048158 -1.745913
  H 0.519109 -0.717331 -1.845534
  H 5.200124 0.087831 -0.420719
  H 4.847568 0.259315 -3.460011
  H 7.036007 0.159766 -1.695623
 26
 12.443827
  H 1.543297 0.055741 0.147853
  C 2.615396 0.061371 0.048072
  C 3.382945 -0.010771 1.326651
  C 2.370123 -0.087100 2.679241
  C 3.178416 -0.159544 3.963166
  C 3.206870 0.134921 -1.255375
  C 2.384765 0.205996 -2.515003
  C 0.871825 0.195847 -2.335115
  H 0.384562 0.250626 -3.305973
  C 4.646289 0.143921 -1.414800
  C 5.315048 0.208976 -2.567875
  O 6.667984 0.215057 -2.675589
  H 4.025816 0.866280 1.433675
  H 4.025818 -0.894290 1.334330
  H 1.732594 -0.966640 2.597704
  H 1.732587 0.796025 2.697169
  H 3.812615 -1.043889 3.970597
  H 2.515334 -0.208154 4.824537
  H 3.812612 0.718355 4.070034
  H 2.664074 -0.638337 -3.153545
  H 2.664073 1.116805 -3.054511
  H 0.546159 1.047826 -1.742725
  H 0.546162 -0.717356 -1.842331
  H 5.233711 0.092628 -0.505724
  H 4.861172 0.264056 -3.544058
  H 7.063729 0.165409 -1.795603
 26
 35.355182
  H 1.614687 0.056761 0.129805
  C 2.675368 0.062148 0.034366
  C 3.482569 -0.007992 1.277439
  C 2.282925 -0.092423 2.773543
  C 3.096996 -0.164216 4.046017
  C 3.246212 0.138193 -1.313320
  C 2.379433 0.207093 -2.534343
  C 0.881622 0.193041 -2.285232
  H 0.354807 0.246672 -3.235677
  C 4.670446 0.147466 -1.477691
  C 5.322234 0.212802 -2.635749
  O 6.673694 0.220056 -2.764198
  H 4.082199 0.877090 1.474000
  H 4.082213 -0.909563 1.373186
  H 1.682539 -0.981323 2.592006
  H 1.682536 0.811240 2.693157
  H 3.730264 -1.048785 4.056254
  H 2.431320 -0.212987 4.910353
  H 3.730239 0.713578 4.155693
  H 2.634914 -0.635102 -3.180488
  H 2.634923 1.116630 -3.081646
  H 0.580414 1.045789 -1.681012
  H 0.580396 -0.722298 -1.780755
  H 5.260340 0.096282 -0.570516
  H 4.843401 0.267450 -3.604393
  H 7.082790 0.170763 -1.890351
