 20
 0.000000
  C 1.006600 -0.071485 0.047722
  C 2.502916 -0.082175 0.026739
  C 3.219639 -0.594706 -0.979448
  C 4.657053 -0.605681 -1.000992
  C 5.378067 -1.120873 -2.012398
  C 6.816197 -1.130857 -2.031995
  C 7.534976 -1.642519 -3.036480
  C 9.024821 -1.662080 -3.074875
  H 0.643202 0.394424 0.962374
  H 0.611548 -1.086305 0.007997
  H 0.611551 0.493053 -0.796510
  H 3.002959 0.353247 0.881547
  H 2.709058 -1.028238 -1.830533
  H 5.161466 -0.170837 -0.147324
  H 4.874094 -1.555783 -2.866200
  H 7.322582 -0.696369 -1.179022
  H 7.036287 -2.078741 -3.892841
  H 9.458072 -1.208897 -2.185206
  H 9.384158 -1.116478 -3.948682
  H 9.384155 -2.689681 -3.147321
 20
 10.755783
  C 0.933590 -0.055119 0.079854
  C 2.430314 -0.074845 0.041128
  C 3.126929 -0.587165 -0.964642
  C 4.690420 -0.604727 -0.999119
  C 5.391916 -1.120169 -2.011017
  C 6.831859 -1.138684 -2.047359
  C 7.531687 -1.651465 -3.054043
  C 9.155068 -1.678383 -3.106881
  H 0.581014 0.411927 0.996734
  H 0.533046 -1.067236 0.041021
  H 0.533047 0.508553 -0.761669
  H 2.943427 0.357351 0.889602
  H 2.617252 -1.018916 -1.812232
  H 5.195155 -0.171912 -0.149434
  H 4.876425 -1.552341 -2.859442
  H 7.348856 -0.706813 -1.199527
  H 7.032378 -2.085527 -3.906166
  H 9.583049 -1.226360 -2.219489
  H 9.501522 -1.134887 -3.981049
  H 9.501521 -2.705042 -3.181246
 20
 35.137760
  C 0.855783 -0.036270 0.116853
  C 2.353818 -0.065217 0.060031
  C 3.033517 -0.581592 -0.953705
  C 4.723821 -0.602657 -0.995054
  C 5.406800 -1.120867 -2.012388
  C 6.852505 -1.147363 -2.064397
  C 7.534778 -1.664450 -3.079533
  C 9.291308 -1.695254 -3.140017
  H 0.514950 0.432486 1.037092
  H 0.449227 -1.046443 0.079433
  H 0.449232 0.527403 -0.722261
  H 2.879910 0.364247 0.903147
  H 2.533296 -1.014622 -1.803811
  H 5.220529 -0.168919 -0.143552
  H 4.880409 -1.550802 -2.856411
  H 7.379645 -0.717606 -1.220716
  H 7.043539 -2.099320 -3.933238
  H 9.701728 -1.241043 -2.248337
  H 9.619898 -1.149748 -4.015841
  H 9.619912 -2.724461 -3.213729
 20
 63.461165
  C 0.805407 -0.021239 0.146494
  C 2.303672 -0.063122 0.064138
  C 2.954122 -0.582345 -0.955274
  C 4.760874 -0.600659 -0.991373
  C 5.409590 -1.117395 -2.005807
  C 6.857489 -1.153695 -2.076941
  C 7.514327 -1.677607 -3.105422
  C 9.415272 -1.705463 -3.159887
  H 0.485110 0.450026 1.071742
  H 0.390077 -1.027551 0.114496
  H 0.390005 0.544557 -0.686269
  H 2.845619 0.361478 0.897730
  H 2.485241 -1.020165 -1.814669
  H 5.228455 -0.162988 -0.132210
  H 4.872219 -1.543321 -2.841916
  H 7.394877 -0.727351 -1.239987
  H 7.052614 -2.116848 -3.967726
  H 9.776769 -1.245585 -2.257026
  H 9.707829 -1.154073 -4.037349
  H 9.707728 -2.739454 -3.229763
 20
 92.506866
  C 0.769246 -0.001993 0.184136
  C 2.264982 -0.060111 0.069822
  C 2.890268 -0.587486 -0.965159
  C 4.777471 -0.596858 -0.983743
  C 5.403335 -1.122326 -2.015240
  C 6.850753 -1.169853 -2.108375
  C 7.473484 -1.694546 -3.138709
  C 9.555447 -1.707989 -3.164977
  H 0.472973 0.471976 1.114470
  H 0.344677 -1.003611 0.156395
  H 0.344579 0.564306 -0.642429
  H 2.824168 0.359067 0.892642
  H 2.474540 -1.033556 -1.840568
  H 5.195524 -0.151849 -0.110244
  H 4.855721 -1.544685 -2.844278
  H 7.396402 -0.747129 -1.278327
  H 7.069931 -2.141719 -4.016911
  H 9.827139 -1.240207 -2.246224
  H 9.792797 -1.146981 -4.040767
  H 9.792761 -2.746239 -3.226476
 20
 111.772716
  C 0.840313 0.023986 0.210770
  C 2.339173 -0.055218 0.082235
  C 2.958391 -0.593215 -0.955343
  C 4.568192 -0.635438 -1.001165
  C 5.186760 -1.161515 -2.040665
  C 6.649108 -1.197551 -2.159837
  C 7.267961 -1.717139 -3.192955
  C 9.885630 -1.674142 -3.126839
  H 0.553729 0.509121 1.139613
  H 0.402401 -0.971667 0.192447
  H 0.414200 0.585993 -0.617546
  H 2.913346 0.368667 0.890538
  H 2.511483 -1.030862 -1.824016
  H 5.018697 -0.197649 -0.134576
  H 4.629726 -1.575489 -2.864322
  H 7.192047 -0.778981 -1.329804
  H 6.952954 -2.180253 -4.094903
  H 10.008473 -1.196681 -2.183156
  H 10.053237 -1.097238 -4.003739
  H 10.057289 -2.721802 -3.182424
 20
 122.266022
  C 0.861500 0.038546 0.249908
  C 2.337303 -0.037239 0.115442
  C 2.959286 -0.577043 -0.929003
  C 4.442920 -0.638519 -1.035731
  C 5.069854 -1.176125 -2.090339
  C 6.528220 -1.224667 -2.213855
  C 7.153754 -1.740654 -3.231180
  C 10.151154 -1.661269 -3.095744
  H 0.575892 0.518576 1.173999
  H 0.426880 -0.957184 0.226285
  H 0.431640 0.595926 -0.578302
  H 2.921660 0.385027 0.924888
  H 2.426224 -1.003459 -1.765642
  H 4.975694 -0.213077 -0.200540
  H 4.498588 -1.595995 -2.915369
  H 7.077265 -0.797063 -1.374791
  H 6.868849 -2.215348 -4.155183
  H 10.199873 -1.177354 -2.145002
  H 10.290612 -1.075179 -3.986418
  H 10.293927 -2.725822 -3.146564
 20
 129.002115
  C 0.866923 0.054953 0.282869
  C 2.335785 -0.031762 0.130563
  C 2.942754 -0.577050 -0.922493
  C 4.383204 -0.643691 -1.050914
  C 4.996563 -1.186926 -2.115208
  C 6.441635 -1.239759 -2.253322
  C 7.071992 -1.754119 -3.265916
  C 10.367861 -1.653551 -3.075367
  H 0.602420 0.536659 1.209060
  H 0.424347 -0.933528 0.269076
  H 0.432740 0.618061 -0.535005
  H 2.930013 0.384897 0.930678
  H 2.380673 -1.004515 -1.752602
  H 4.944118 -0.217098 -0.222989
  H 4.414583 -1.608824 -2.938302
  H 6.995064 -0.808434 -1.410453
  H 6.842885 -2.233046 -4.197621
  H 10.346566 -1.170116 -2.124779
  H 10.454444 -1.065847 -3.968691
  H 10.455752 -2.721824 -3.126584
 20
 132.686657
  C 0.823175 0.059747 0.315799
  C 2.310771 -0.017513 0.151056
  C 2.913620 -0.561885 -0.905536
  C 4.344656 -0.627548 -1.059004
  C 4.952471 -1.175079 -2.125930
  C 6.393022 -1.240442 -2.270008
  C 7.027124 -1.756872 -3.280066
  C 10.591356 -1.674754 -3.090504
  H 0.556517 0.545527 1.255386
  H 0.381096 -0.945242 0.304745
  H 0.372739 0.625652 -0.509665
  H 2.914895 0.403840 0.950897
  H 2.332634 -0.983065 -1.702073
  H 4.925612 -0.210666 -0.258678
  H 4.373005 -1.594360 -2.929332
  H 6.944350 -0.809991 -1.441928
  H 6.820771 -2.238828 -4.218384
  H 10.554423 -1.193153 -2.143436
  H 10.640968 -1.087301 -3.988178
  H 10.635240 -2.745106 -3.144453
 20
 134.553175
  C 0.789746 0.069983 0.339188
  C 2.281446 -0.007915 0.167982
  C 2.880265 -0.552452 -0.892218
  C 4.305366 -0.622887 -1.051393
  C 4.906041 -1.169592 -2.117910
  C 6.348362 -1.239125 -2.266453
  C 6.987024 -1.755271 -3.276285
  C 10.819154 -1.694179 -3.124515
  H 0.526056 0.552533 1.276973
  H 0.349480 -0.927070 0.328684
  H 0.338509 0.633568 -0.477767
  H 2.885730 0.407879 0.960697
  H 2.281435 -0.974110 -1.694408
  H 4.902235 -0.204981 -0.247743
  H 4.318326 -1.590748 -2.926026
  H 6.905313 -0.807549 -1.435582
  H 6.801881 -2.236104 -4.213141
  H 10.770451 -1.216398 -2.185053
  H 10.814253 -1.111166 -4.020636
  H 10.810879 -2.760577 -3.180946
 20
 135.307405
  C 0.750758 0.073437 0.354352
  C 2.233824 0.003973 0.185146
  C 2.837533 -0.538387 -0.876270
  C 4.261008 -0.609778 -1.034714
  C 4.866818 -1.155864 -2.100284
  C 6.314356 -1.228741 -2.243576
  C 6.957667 -1.743891 -3.250499
  C 11.054863 -1.731981 -3.191881
  H 0.483428 0.553286 1.293582
  H 0.317023 -0.923729 0.340623
  H 0.298412 0.634290 -0.460893
  H 2.834991 0.419823 0.979569
  H 2.239697 -0.955161 -1.672180
  H 4.856572 -0.197232 -0.237067
  H 4.283380 -1.575883 -2.906584
  H 6.867392 -0.798835 -1.417062
  H 6.774881 -2.222159 -4.183332
  H 11.031321 -1.245361 -2.234601
  H 11.007084 -1.149725 -4.086989
  H 11.006555 -2.798301 -3.248439
 20
 135.554991
  C 0.695211 0.072567 0.357542
  C 2.186414 0.009912 0.200920
  C 2.801122 -0.527664 -0.855179
  C 4.220160 -0.587619 -1.003374
  C 4.837193 -1.131002 -2.062857
  C 6.285873 -1.201378 -2.192041
  C 6.937444 -1.715985 -3.195347
  C 11.299851 -1.787452 -3.290441
  H 0.416657 0.548584 1.294271
  H 0.266959 -0.925864 0.336847
  H 0.247456 0.632403 -0.461317
  H 2.778530 0.425968 1.001085
  H 2.204723 -0.952282 -1.661199
  H 4.812195 -0.169863 -0.198015
  H 4.259111 -1.556404 -2.876821
  H 6.833403 -0.767139 -1.358972
  H 6.743688 -2.196245 -4.132408
  H 11.333767 -1.306010 -2.343444
  H 11.214573 -1.204757 -4.180073
  H 11.216949 -2.847813 -3.343412
 20
 135.661911
  C 0.644844 0.084825 0.350466
  C 2.134883 0.014882 0.214902
  C 2.765145 -0.523415 -0.835219
  C 4.179048 -0.593156 -0.961098
  C 4.808954 -1.129412 -2.015798
  C 6.259690 -1.182998 -2.135018
  C 6.922828 -1.690934 -3.135289
  C 11.543539 -1.834875 -3.411939
  H 0.355041 0.562369 1.284922
  H 0.213678 -0.904675 0.323136
  H 0.214917 0.644348 -0.469043
  H 2.712235 0.426020 1.016853
  H 2.187570 -0.932829 -1.643632
  H 4.756526 -0.180425 -0.152422
  H 4.239796 -1.549605 -2.842435
  H 6.794097 -0.756502 -1.296438
  H 6.726108 -2.160195 -4.051027
  H 11.648470 -1.354704 -2.465814
  H 11.427241 -1.242918 -4.304022
  H 11.441091 -2.913061 -3.462463
 20
 135.708942
  C 0.606104 0.088193 0.350676
  C 2.094873 0.022159 0.227017
  C 2.732843 -0.514298 -0.816685
  C 4.148631 -0.583274 -0.925607
  C 4.788836 -1.116584 -1.976676
  C 6.238631 -1.160193 -2.087207
  C 6.908919 -1.664200 -3.083079
  C 11.773201 -1.896963 -3.539130
  H 0.306216 0.569317 1.289122
  H 0.177563 -0.903749 0.320419
  H 0.179996 0.648677 -0.478153
  H 2.666477 0.437870 1.035341
  H 2.162188 -0.927731 -1.642358
  H 4.711802 -0.170182 -0.111100
  H 4.229752 -1.535831 -2.806441
  H 6.763590 -0.733615 -1.244579
  H 6.705452 -2.145867 -4.022652
  H 11.959765 -1.415862 -2.590302
  H 11.646237 -1.309368 -4.414569
  H 11.666254 -2.952080 -3.585717
