 17
 0.000000
  H 1.434959 -0.075706 0.039441
  C 2.508054 -0.083782 0.023586
  C 3.218161 -0.595395 -0.980802
  C 4.655168 -0.607528 -1.004619
  C 5.377006 -1.122410 -2.015418
  C 6.814356 -1.131763 -2.033780
  C 7.534941 -1.642089 -3.035637
  C 9.024021 -1.660456 -3.071687
  H 3.007821 0.350716 0.876581
  H 2.705436 -1.028238 -1.830535
  H 5.159752 -0.172876 -0.151330
  H 4.874057 -1.557458 -2.869488
  H 7.318680 -0.696973 -1.180215
  H 7.037517 -2.078448 -3.892268
  H 9.454384 -1.206931 -2.181347
  H 9.384460 -1.114914 -3.944655
  H 9.384459 -2.687351 -3.143686
 17
 0.695803
  H 1.417275 -0.290927 0.031944
  C 2.487294 -0.179740 0.042213
  C 3.253884 -0.590176 -0.965670
  C 4.688497 -0.478617 -0.989741
  C 5.430691 -0.856115 -2.044429
  C 6.866432 -0.889078 -2.072114
  C 7.541921 -1.549456 -3.015328
  C 9.015785 -1.747105 -3.061595
  H 2.915205 0.279293 0.920221
  H 2.804265 -1.048794 -1.836114
  H 5.166773 -0.089731 -0.099061
  H 4.930855 -1.241111 -2.926520
  H 7.390252 -0.412418 -1.254546
  H 6.984340 -2.029844 -3.811070
  H 9.504894 -1.264606 -2.217988
  H 9.424877 -1.336495 -3.986290
  H 9.249464 -2.812134 -3.043864
 17
 2.563394
  H 1.426797 -0.504470 0.003112
  C 2.487148 -0.324829 0.037073
  C 3.281934 -0.601934 -0.988577
  C 4.709626 -0.417123 -0.985927
  C 5.465453 -0.668900 -2.066435
  C 6.906524 -0.724242 -2.093142
  C 7.524998 -1.508470 -2.975239
  C 8.970614 -1.850567 -3.045656
  H 2.874215 0.092144 0.952253
  H 2.867362 -1.020783 -1.897004
  H 5.166778 -0.103594 -0.056615
  H 4.971694 -0.982408 -2.979422
  H 7.455144 -0.194879 -1.326046
  H 6.907345 -2.034790 -3.695636
  H 9.543655 -1.313848 -2.292467
  H 9.369606 -1.606679 -4.030628
  H 9.103431 -2.921501 -2.893497
 17
 5.219012
  H 1.435484 -0.667665 -0.047892
  C 2.491993 -0.473025 0.017125
  C 3.302040 -0.612609 -1.029972
  C 4.729596 -0.413881 -0.989680
  C 5.490852 -0.521931 -2.087068
  C 6.938575 -0.609607 -2.114466
  C 7.492989 -1.519325 -2.910997
  C 8.912798 -1.948842 -3.024429
  H 2.863456 -0.158662 0.978745
  H 2.903289 -0.930128 -1.985701
  H 5.177512 -0.223772 -0.023210
  H 4.999971 -0.716598 -3.034398
  H 7.519356 -0.010387 -1.427399
  H 6.816817 -2.098830 -3.533227
  H 9.563016 -1.356992 -2.382994
  H 9.252616 -1.851267 -4.055519
  H 9.002424 -2.998257 -2.745123
 17
 7.385424
  H 1.450920 -0.714928 -0.108063
  C 2.517126 -0.601109 -0.014278
  C 3.316979 -0.548791 -1.074317
  C 4.754128 -0.442221 -1.007086
  C 5.515635 -0.362262 -2.101482
  C 6.971394 -0.516484 -2.132320
  C 7.460182 -1.528808 -2.835312
  C 8.861863 -2.010455 -2.981294
  H 2.905485 -0.530628 0.988641
  H 2.902709 -0.621460 -2.072193
  H 5.206610 -0.483186 -0.025250
  H 5.030349 -0.329958 -3.071255
  H 7.594577 0.141842 -1.543634
  H 6.737702 -2.151565 -3.356119
  H 9.564286 -1.362191 -2.460129
  H 9.134800 -2.050011 -4.035867
  H 8.948625 -3.019408 -2.578532
 17
 9.084286
  H 1.460949 -0.742256 -0.195630
  C 2.531225 -0.712841 -0.086471
  C 3.339574 -0.488266 -1.116831
  C 4.781943 -0.491346 -1.037726
  C 5.563407 -0.196932 -2.076667
  C 7.014600 -0.444367 -2.124727
  C 7.415648 -1.542398 -2.743768
  C 8.789446 -2.083491 -2.947703
  H 2.916592 -0.872919 0.907702
  H 2.929773 -0.328907 -2.106118
  H 5.220135 -0.797600 -0.097320
  H 5.106737 0.112972 -3.010824
  H 7.697401 0.241533 -1.641901
  H 6.639605 -2.169869 -3.173429
  H 9.543162 -1.440875 -2.495110
  H 8.998363 -2.173179 -4.013358
  H 8.864983 -3.078804 -2.509669
 17
 8.647521
  H 1.490733 -0.739569 -0.214325
  C 2.563527 -0.793585 -0.142826
  C 3.356917 -0.436717 -1.146782
  C 4.799339 -0.546153 -1.118738
  C 5.598055 -0.065599 -2.071488
  C 7.033460 -0.379970 -2.159921
  C 7.381127 -1.563157 -2.640080
  C 8.740257 -2.116434 -2.887572
  H 2.963894 -1.149529 0.790695
  H 2.930986 -0.076962 -2.077693
  H 5.228566 -1.085294 -0.281635
  H 5.176623 0.495141 -2.899360
  H 7.758944 0.355166 -1.841070
  H 6.576063 -2.227573 -2.940770
  H 9.514350 -1.441362 -2.533422
  H 8.882769 -2.283789 -3.955204
  H 8.850035 -3.073783 -2.385265
 17
 8.017342
  H 1.539873 -0.895079 -0.296480
  C 2.613818 -0.932118 -0.231065
  C 3.398445 -0.416087 -1.174760
  C 4.834406 -0.530743 -1.181294
  C 5.646061 0.085577 -2.050409
  C 7.048425 -0.311426 -2.197407
  C 7.306803 -1.563860 -2.550064
  C 8.634155 -2.181057 -2.818599
  H 3.024127 -1.397374 0.645945
  H 2.958099 0.053322 -2.046540
  H 5.262527 -1.216455 -0.461590
  H 5.253346 0.808336 -2.756122
  H 7.832266 0.411226 -2.023332
  H 6.458308 -2.214001 -2.733556
  H 9.446048 -1.530463 -2.496297
  H 8.746522 -2.376038 -3.889073
  H 8.715733 -3.131259 -2.301347
 17
 9.162981
  H 1.618761 -1.098640 -0.401051
  C 2.693551 -1.093100 -0.347392
  C 3.441956 -0.407542 -1.209542
  C 4.870217 -0.497994 -1.257028
  C 5.690921 0.225207 -2.043507
  C 7.038183 -0.252769 -2.293277
  C 7.218342 -1.557643 -2.485107
  C 8.521802 -2.252667 -2.680350
  H 3.137679 -1.668928 0.448218
  H 2.961401 0.165096 -1.992623
  H 5.311490 -1.234312 -0.596737
  H 5.346318 1.125220 -2.537695
  H 7.865062 0.444854 -2.324138
  H 6.337717 -2.156266 -2.679999
  H 9.354540 -1.623034 -2.374599
  H 8.656865 -2.525318 -3.728137
  H 8.541141 -3.173178 -2.098672
 17
 19.150026
  H 1.780923 -1.418191 -0.513100
  C 2.846596 -1.284487 -0.439060
  C 3.529799 -0.503921 -1.290629
  C 4.956945 -0.422921 -1.303020
  C 5.729046 0.378011 -2.083872
  C 7.025886 -0.155985 -2.399130
  C 7.085440 -1.495020 -2.484787
  C 8.333538 -2.310077 -2.493465
  H 3.343302 -1.812401 0.359050
  H 2.994440 0.007409 -2.082551
  H 5.454717 -1.036141 -0.562454
  H 5.364271 1.310155 -2.491290
  H 7.902573 0.465137 -2.521401
  H 6.193679 -2.009679 -2.811115
  H 9.178085 -1.741331 -2.111886
  H 8.571992 -2.655775 -3.501427
  H 8.192999 -3.194838 -1.874040
 17
 32.038412
  H 1.977365 -1.664967 -0.581635
  C 3.030710 -1.455499 -0.513896
  C 3.650654 -0.636302 -1.369154
  C 5.056569 -0.418430 -1.371556
  C 5.742920 0.479010 -2.170108
  C 6.991389 -0.065873 -2.527155
  C 6.945075 -1.435082 -2.476340
  C 8.131018 -2.320242 -2.277438
  H 3.568483 -1.944247 0.282047
  H 3.083111 -0.172876 -2.167918
  H 5.593515 -0.886961 -0.558717
  H 5.321641 1.408853 -2.520267
  H 7.896930 0.486305 -2.734591
  H 6.084081 -1.923689 -2.904373
  H 8.964650 -1.772521 -1.844616
  H 8.455509 -2.760966 -3.223047
  H 7.865747 -3.142584 -1.614497
 17
 39.577485
  H 2.222844 -1.966281 -0.625284
  C 3.252813 -1.659759 -0.559207
  C 3.799294 -0.810561 -1.430655
  C 5.191292 -0.439658 -1.429345
  C 5.751694 0.570204 -2.266488
  C 6.939263 0.033116 -2.682411
  C 6.785201 -1.357411 -2.460702
  C 7.900130 -2.278748 -2.072774
  H 3.825516 -2.072453 0.256018
  H 3.201096 -0.424876 -2.247489
  H 5.753010 -0.756088 -0.562432
  H 5.250708 1.473187 -2.574386
  H 7.858372 0.518559 -2.970401
  H 5.965974 -1.861610 -2.950668
  H 8.721867 -1.734835 -1.612557
  H 8.275847 -2.806107 -2.951834
  H 7.542878 -3.032852 -1.372273
 17
 31.142574
  H 2.418763 -2.134160 -0.643126
  C 3.444636 -1.809551 -0.607840
  C 3.941230 -0.941142 -1.479751
  C 5.342173 -0.485261 -1.497941
  C 5.772313 0.633271 -2.344880
  C 6.912543 0.100505 -2.818652
  C 6.645019 -1.294550 -2.468685
  C 7.702964 -2.222070 -1.933008
  H 4.049286 -2.218448 0.186025
  H 3.321151 -0.571547 -2.286673
  H 5.914279 -0.704969 -0.605045
  H 5.226172 1.528326 -2.588174
  H 7.829066 0.534877 -3.179028
  H 5.873738 -1.819927 -3.022446
  H 8.504984 -1.667147 -1.451120
  H 8.122963 -2.809676 -2.748553
  H 7.279117 -2.919585 -1.211421
 17
 16.370728
  H 2.550170 -2.276590 -0.651124
  C 3.550862 -1.884330 -0.588855
  C 4.040674 -1.058245 -1.497146
  C 5.428509 -0.532452 -1.501642
  C 5.777798 0.664550 -2.330429
  C 6.837157 0.103462 -2.917718
  C 6.528605 -1.277086 -2.440140
  C 7.580980 -2.180924 -1.837313
  H 4.133085 -2.192536 0.264664
  H 3.444580 -0.764266 -2.352290
  H 5.929356 -0.583551 -0.535665
  H 5.211052 1.558656 -2.515402
  H 7.732663 0.496737 -3.362464
  H 5.838419 -1.839965 -3.072639
  H 8.349189 -1.600516 -1.330253
  H 8.053211 -2.773927 -2.618306
  H 7.131315 -2.865907 -1.120727
 17
 5.699934
  H 2.444484 -2.048407 -0.470405
  C 3.456674 -1.684531 -0.426763
  C 4.066848 -1.184579 -1.486325
  C 5.469120 -0.689346 -1.493386
  C 5.773721 0.524549 -2.340186
  C 6.631494 -0.108775 -3.131953
  C 6.461546 -1.441623 -2.446949
  C 7.684159 -2.048666 -1.781574
  H 3.944993 -1.748438 0.531380
  H 3.553469 -1.132394 -2.438455
  H 5.852277 -0.617472 -0.472681
  H 5.394888 1.528247 -2.285016
  H 7.248743 0.184781 -3.961998
  H 5.959907 -2.188427 -3.067002
  H 8.246532 -1.283601 -1.250123
  H 8.336373 -2.502677 -2.524742
  H 7.382338 -2.816242 -1.071708
