 23
 0.000000
  C 0.976265 0.171673 0.478282
  C 2.435112 0.124288 0.359941
  H 3.047879 0.455945 1.185342
  C 3.028460 -0.338804 -0.793460
  C 4.408209 -0.415869 -0.985710
  C 5.104977 -0.866200 -2.108143
  C 4.620846 -1.389366 -3.412004
  C 3.135215 -1.515029 -3.725850
  C 2.946892 -2.079288 -5.132051
  O 6.419899 -0.854647 -2.079616
  H 0.641998 0.556599 1.436625
  H 0.556468 -0.825941 0.334236
  H 0.556187 0.792343 -0.315796
  H 2.375472 -0.658228 -1.588644
  H 5.017733 -0.081255 -0.152538
  H 5.087367 -2.374155 -3.533105
  H 5.087742 -0.761743 -4.180242
  H 2.653220 -0.537919 -3.682466
  H 2.652902 -2.190973 -3.019117
  H 3.397103 -1.428586 -5.877927
  H 1.888310 -2.170935 -5.360961
  H 3.396847 -3.065207 -5.221168
  H 6.804591 -0.520998 -1.246587
 23
 0.097834
  C 0.984067 0.170543 0.572112
  C 2.421654 0.185738 0.306827
  H 3.074120 0.635299 1.043372
  C 2.971092 -0.350688 -0.834880
  C 4.350307 -0.348158 -1.050575
  C 5.079860 -0.932155 -2.089539
  C 4.625370 -1.400369 -3.423636
  C 3.145235 -1.558894 -3.746922
  C 2.980615 -2.057093 -5.180739
  O 6.379354 -1.060621 -1.961927
  H 0.732877 0.633452 1.519915
  H 0.607092 -0.854735 0.555356
  H 0.445733 0.674303 -0.234314
  H 2.307734 -0.798043 -1.555196
  H 4.944598 0.074923 -0.246635
  H 5.144591 -2.344955 -3.620310
  H 5.063170 -0.694797 -4.141771
  H 2.630925 -0.602386 -3.655088
  H 2.689418 -2.287085 -3.075592
  H 3.411783 -1.354310 -5.889887
  H 1.927448 -2.174027 -5.421330
  H 3.465735 -3.020769 -5.317059
  H 6.752864 -0.730207 -1.122876
 23
 2.720639
  C 1.005535 0.171208 0.587613
  C 2.443804 0.189853 0.318602
  H 3.100311 0.596740 1.075515
  C 2.986594 -0.317363 -0.834383
  C 4.344400 -0.197137 -1.133582
  C 5.058174 -0.944206 -2.079101
  C 4.629751 -1.408530 -3.423620
  C 3.151961 -1.589131 -3.753798
  C 2.996073 -2.026705 -5.207969
  O 6.323451 -1.203592 -1.863039
  H 0.758900 0.626213 1.540543
  H 0.625741 -0.852954 0.567620
  H 0.467741 0.683805 -0.212833
  H 2.322077 -0.798530 -1.533089
  H 4.941329 0.358236 -0.417863
  H 5.174607 -2.332170 -3.639307
  H 5.043012 -0.661570 -4.114583
  H 2.612735 -0.652512 -3.617679
  H 2.718277 -2.357412 -3.112670
  H 3.412730 -1.284825 -5.885354
  H 1.944734 -2.153999 -5.453337
  H 3.500048 -2.973961 -5.386205
  H 6.694389 -0.842455 -1.034178
 23
 10.807577
  C 1.044466 0.160863 0.619080
  C 2.486823 0.084018 0.362563
  H 3.159778 0.339608 1.169228
  C 3.005965 -0.344350 -0.836457
  C 4.308419 -0.036913 -1.241427
  C 5.004786 -0.925503 -2.072232
  C 4.622919 -1.434318 -3.413886
  C 3.149420 -1.579213 -3.785510
  C 3.019698 -2.023749 -5.239888
  O 6.230725 -1.257303 -1.765127
  H 0.826297 0.561664 1.602916
  H 0.578436 -0.822790 0.523759
  H 0.564337 0.777067 -0.143185
  H 2.309661 -0.779508 -1.537495
  H 4.883490 0.629968 -0.610461
  H 5.144239 -2.381194 -3.575418
  H 5.078499 -0.712904 -4.105251
  H 2.632572 -0.626919 -3.669323
  H 2.678773 -2.329674 -3.150140
  H 3.472585 -1.298256 -5.911157
  H 1.972067 -2.125710 -5.511109
  H 3.502093 -2.985232 -5.398109
  H 6.587830 -0.867770 -0.942220
 23
 25.418651
  C 1.129572 0.155701 0.700000
  C 2.550739 -0.065245 0.389777
  H 3.258353 -0.013397 1.204855
  C 2.995899 -0.387701 -0.873677
  C 4.216033 0.114939 -1.377404
  C 4.918004 -0.890116 -2.063639
  C 4.601725 -1.473297 -3.391770
  C 3.146245 -1.537495 -3.850277
  C 3.071427 -2.027419 -5.293453
  O 6.093449 -1.264566 -1.652753
  H 0.987022 0.481661 1.724258
  H 0.542290 -0.752086 0.537623
  H 0.712888 0.893128 0.014067
  H 2.235922 -0.749442 -1.553174
  H 4.742258 0.865877 -0.805637
  H 5.059378 -2.463806 -3.452086
  H 5.151613 -0.827476 -4.087053
  H 2.687584 -0.550478 -3.791164
  H 2.589219 -2.233453 -3.221887
  H 3.601136 -1.353070 -5.961679
  H 2.036475 -2.082323 -5.620294
  H 3.508652 -3.017589 -5.391401
  H 6.434335 -0.816412 -0.853849
 23
 45.046826
  C 1.276348 0.110812 0.728730
  C 2.668027 -0.148499 0.333290
  H 3.421741 -0.148818 1.106505
  C 3.032829 -0.431592 -0.982741
  C 4.150409 0.312909 -1.506444
  C 4.757539 -0.854215 -1.985588
  C 4.514238 -1.487721 -3.318712
  C 3.104779 -1.480009 -3.905567
  C 3.125483 -2.041955 -5.324721
  O 5.869800 -1.307439 -1.466292
  H 1.200072 0.404304 1.769538
  H 0.651324 -0.771278 0.561378
  H 0.844488 0.883309 0.091717
  H 2.240487 -0.773196 -1.632976
  H 4.622891 1.118966 -0.973355
  H 4.894919 -2.510876 -3.282422
  H 5.171001 -0.921176 -3.987156
  H 2.714584 -0.462239 -3.937243
  H 2.442254 -2.102752 -3.303980
  H 3.761667 -1.443010 -5.971375
  H 2.123715 -2.043728 -5.745027
  H 3.497513 -3.063180 -5.331868
  H 6.184102 -0.854600 -0.660353
 23
 54.652922
  C 1.484964 0.010649 0.785353
  C 2.813401 -0.280962 0.264662
  H 3.641467 -0.315803 0.959933
  C 3.055704 -0.523244 -1.104925
  C 4.017644 0.464449 -1.611699
  C 4.540609 -0.820079 -1.899136
  C 4.399692 -1.490347 -3.248241
  C 3.066733 -1.388862 -3.977977
  C 3.187009 -1.998735 -5.372525
  O 5.621921 -1.302245 -1.268546
  H 1.506669 0.306331 1.829270
  H 0.836641 -0.864500 0.674628
  H 0.996869 0.779963 0.184189
  H 2.230302 -0.859836 -1.718172
  H 4.418633 1.329555 -1.124809
  H 4.684183 -2.536504 -3.130353
  H 5.169032 -1.013635 -3.861069
  H 2.769234 -0.343767 -4.072415
  H 2.290913 -1.935492 -3.440323
  H 3.935921 -1.474006 -5.963112
  H 2.236357 -1.934645 -5.896835
  H 3.472951 -3.047175 -5.313588
  H 5.890755 -0.801347 -0.479093
 23
 58.242304
  C 1.681333 0.130119 0.822655
  C 2.908526 -0.374518 0.225894
  H 3.787524 -0.458871 0.849005
  C 2.979584 -0.770002 -1.139995
  C 3.779679 0.401925 -1.555670
  C 4.372236 -0.895501 -1.848888
  C 4.372602 -1.459595 -3.260975
  C 3.050274 -1.431527 -4.017113
  C 3.244937 -1.937067 -5.443338
  O 5.505037 -1.303078 -1.201444
  H 1.830917 0.504396 1.829888
  H 0.937482 -0.673319 0.838565
  H 1.222635 0.902337 0.203008
  H 2.117319 -1.117921 -1.688922
  H 4.105214 1.318831 -1.110446
  H 4.756973 -2.479241 -3.204012
  H 5.108770 -0.870796 -3.813963
  H 2.660141 -0.412732 -4.049605
  H 2.318090 -2.077129 -3.530733
  H 3.953964 -1.313371 -5.981913
  H 2.301672 -1.921445 -5.983084
  H 3.620830 -2.957112 -5.444341
  H 5.653050 -0.871491 -0.345942
 23
 56.079524
  C 1.768745 0.220890 0.770263
  C 2.975784 -0.383994 0.155703
  H 3.860789 -0.454824 0.772789
  C 2.919492 -1.013643 -1.125320
  C 3.571039 0.271432 -1.416831
  C 4.291756 -1.006346 -1.797239
  C 4.345563 -1.476162 -3.235698
  C 3.029839 -1.484721 -3.998999
  C 3.257411 -1.875695 -5.454785
  O 5.458193 -1.312146 -1.171633
  H 2.005254 0.735725 1.693756
  H 1.042189 -0.563148 0.982915
  H 1.273587 0.909385 0.090695
  H 2.060270 -1.419464 -1.634614
  H 3.876067 1.248485 -1.115706
  H 4.799244 -2.468386 -3.240706
  H 5.046652 -0.811831 -3.749633
  H 2.570365 -0.495243 -3.961231
  H 2.340310 -2.209122 -3.561882
  H 3.921669 -1.170004 -5.946250
  H 2.315484 -1.886612 -5.995421
  H 3.701068 -2.865532 -5.526022
  H 5.571316 -0.923618 -0.289193
 23
 51.040292
  C 1.804151 0.274490 0.718743
  C 3.040568 -0.319535 0.109905
  H 3.903646 -0.375815 0.761024
  C 2.951044 -1.103400 -1.110551
  C 3.505559 0.245587 -1.336446
  C 4.291726 -1.067118 -1.772802
  C 4.354740 -1.445152 -3.231932
  C 3.029516 -1.504902 -3.978277
  C 3.254631 -1.814136 -5.454154
  O 5.470356 -1.306068 -1.166598
  H 2.044886 0.835688 1.615623
  H 1.103271 -0.513451 0.988850
  H 1.295386 0.930931 0.017747
  H 2.082401 -1.523321 -1.587521
  H 3.890185 1.238138 -1.296173
  H 4.881007 -2.399755 -3.304498
  H 5.000539 -0.708531 -3.722204
  H 2.506165 -0.550559 -3.889069
  H 2.395193 -2.290411 -3.561506
  H 3.863769 -1.045785 -5.923791
  H 2.304924 -1.860350 -5.980389
  H 3.757795 -2.769721 -5.578956
  H 5.535470 -1.024406 -0.238770
 23
 47.917927
  C 1.813702 0.279891 0.715418
  C 3.090441 -0.226139 0.085391
  H 3.928015 -0.296792 0.770240
  C 2.996053 -1.079032 -1.114367
  C 3.470620 0.306908 -1.307737
  C 4.302820 -1.158939 -1.770422
  C 4.356285 -1.447685 -3.240116
  C 3.019371 -1.534830 -3.967391
  C 3.235060 -1.799887 -5.453512
  O 5.471081 -1.328619 -1.169598
  H 2.029236 0.827735 1.627087
  H 1.158301 -0.551021 0.966205
  H 1.275932 0.934999 0.035479
  H 2.098353 -1.500665 -1.535882
  H 3.923866 1.260047 -1.440225
  H 4.922153 -2.374399 -3.370389
  H 4.964039 -0.666648 -3.709853
  H 2.466469 -0.601118 -3.851821
  H 2.420728 -2.349569 -3.556130
  H 3.809257 -0.998988 -5.912707
  H 2.280241 -1.866886 -5.968136
  H 3.769046 -2.734066 -5.608747
  H 5.483729 -1.194596 -0.204863
 23
 47.522232
  C 1.848939 0.293448 0.752308
  C 3.127615 -0.156425 0.074498
  H 3.965743 -0.246574 0.757302
  C 3.000746 -1.036520 -1.117483
  C 3.431914 0.364393 -1.315746
  C 4.284557 -1.226560 -1.785391
  C 4.344666 -1.482654 -3.253289
  C 3.010185 -1.537422 -3.989986
  C 3.232986 -1.794006 -5.476825
  O 5.433801 -1.386801 -1.171114
  H 2.075865 0.842789 1.660257
  H 1.236489 -0.564258 1.019211
  H 1.266853 0.935038 0.096987
  H 2.069910 -1.434319 -1.489375
  H 3.929631 1.290280 -1.467663
  H 4.897817 -2.415370 -3.398012
  H 4.970216 -0.705678 -3.706024
  H 2.475515 -0.594028 -3.871562
  H 2.393141 -2.342292 -3.587985
  H 3.824899 -0.999764 -5.924963
  H 2.281195 -1.839683 -5.999359
  H 3.750616 -2.736718 -5.635838
  H 5.420070 -1.327343 -0.197188
 23
 44.983279
  C 1.806802 0.210214 0.782216
  C 3.129634 -0.062053 0.085054
  H 3.958167 -0.144626 0.780232
  C 3.063052 -0.886448 -1.172581
  C 3.381413 0.562920 -1.222030
  C 4.302082 -1.258631 -1.818352
  C 4.352735 -1.528210 -3.274075
  C 3.017984 -1.539211 -4.015132
  C 3.238105 -1.826682 -5.496385
  O 5.423485 -1.422925 -1.191774
  H 1.981302 0.719653 1.725535
  H 1.282657 -0.719546 0.989839
  H 1.166705 0.835728 0.166635
  H 2.111532 -1.250788 -1.529872
  H 4.026512 1.390602 -1.396669
  H 4.872551 -2.481718 -3.411149
  H 5.011973 -0.781923 -3.732889
  H 2.522420 -0.573612 -3.913785
  H 2.367317 -2.311617 -3.603347
  H 3.863164 -1.063088 -5.952701
  H 2.288168 -1.842663 -6.023627
  H 3.718121 -2.791668 -5.638648
  H 5.403680 -1.338222 -0.217283
 23
 40.311366
  C 1.799471 0.135621 0.807884
  C 3.147433 0.048792 0.110204
  H 3.965040 -0.081595 0.813940
  C 3.132319 -0.653151 -1.249772
  C 3.397117 0.804833 -1.105613
  C 4.324142 -1.179549 -1.867763
  C 4.361493 -1.521807 -3.302782
  C 3.023244 -1.578611 -4.036552
  C 3.241279 -1.930959 -5.504560
  O 5.436069 -1.338116 -1.237996
  H 1.927745 0.538448 1.807768
  H 1.344421 -0.847835 0.894103
  H 1.122147 0.783775 0.260159
  H 2.169219 -0.969326 -1.626874
  H 4.145319 1.533127 -1.321538
  H 4.895332 -2.471932 -3.405939
  H 5.008101 -0.785520 -3.796428
  H 2.518376 -0.614548 -3.979161
  H 2.382814 -2.337277 -3.585592
  H 3.855994 -1.182086 -5.997614
  H 2.289508 -1.981027 -6.026353
  H 3.730939 -2.896455 -5.605234
  H 5.429162 -1.186610 -0.270641
 23
 38.314271
  C 1.770115 0.072592 0.773696
  C 3.154951 0.068001 0.149660
  H 3.919463 -0.223421 0.867056
  C 3.200069 -0.429467 -1.319874
  C 3.527368 0.964517 -0.906534
  C 4.324342 -1.114618 -1.895576
  C 4.338782 -1.524295 -3.313053
  C 2.994476 -1.643661 -4.027987
  C 3.209211 -2.010973 -5.492113
  O 5.423776 -1.331856 -1.262537
  H 1.848705 0.252947 1.840981
  H 1.278285 -0.884310 0.627383
  H 1.151151 0.851769 0.337368
  H 2.240009 -0.606020 -1.788310
  H 4.339562 1.615403 -1.140166
  H 4.900448 -2.459724 -3.391227
  H 4.951049 -0.782496 -3.844812
  H 2.452815 -0.700165 -3.985170
  H 2.390673 -2.417589 -3.554667
  H 3.774592 -1.239607 -6.007562
  H 2.254008 -2.122066 -5.996999
  H 3.748151 -2.950247 -5.583721
  H 5.454683 -1.096525 -0.312192
