 17
 0.000000
  C 1.112056 0.033709 0.058352
  C 2.608388 0.044276 0.036734
  C 3.323602 0.539847 -0.978044
  C 4.760522 0.550391 -0.999636
  C 5.480821 1.048823 -2.020258
  C 6.918547 1.058172 -2.039419
  C 7.634158 1.551719 -3.050057
  H 8.706255 1.563713 -3.074625
  H 0.749966 -0.416821 0.980902
  H 0.716743 -0.545527 -0.775193
  H 0.716741 1.047226 0.002635
  H 3.108516 -0.376466 0.898270
  H 2.812585 0.958587 -1.835500
  H 5.264980 0.130208 -0.139237
  H 4.977101 1.469084 -2.880835
  H 7.424923 0.638296 -1.179646
  H 7.138023 1.973163 -3.913030
 17
 13.580342
  C 0.958682 0.012499 0.101788
  C 2.624514 0.018497 0.089521
  C 3.376852 0.550979 -1.000837
  C 4.806658 0.562014 -1.023435
  C 5.528964 1.060499 -2.044166
  C 6.965514 1.071922 -2.067569
  C 7.681240 1.564840 -3.076922
  H 8.755814 1.570945 -3.089436
  H 0.607291 -0.437646 1.023546
  H 0.587384 -0.562761 -0.739799
  H 0.587384 1.029904 0.037991
  H 3.118673 -0.400785 0.948067
  H 2.853262 0.965600 -1.849855
  H 5.313470 0.142188 -0.163769
  H 5.024021 1.480610 -2.904430
  H 7.469722 0.651414 -1.206509
  H 7.194776 1.987594 -3.942592
 17
 40.641123
  C 0.797717 0.011850 0.103117
  C 2.695238 -0.008858 0.145525
  C 3.420467 0.545106 -0.988820
  C 4.843543 0.563659 -1.026799
  C 5.548646 1.061723 -2.046674
  C 6.985452 1.082959 -2.090158
  C 7.690817 1.579251 -3.106423
  H 8.779177 1.579576 -3.107106
  H 0.501927 -0.438097 1.024474
  H 0.539781 -0.562200 -0.761817
  H 0.539781 1.046929 0.024011
  H 3.134366 -0.430741 1.009400
  H 2.858316 0.945011 -1.807700
  H 5.365492 0.147888 -0.175444
  H 5.029942 1.478187 -2.899468
  H 7.497666 0.663507 -1.231267
  H 7.211380 2.000444 -3.968918
 17
 70.346157
  C 0.598911 0.013971 0.098791
  C 2.790583 -0.019023 0.166368
  C 3.478806 0.526699 -0.951146
  C 4.904736 0.555594 -1.010334
  C 5.594641 1.062810 -2.048965
  C 7.026760 1.094614 -2.114073
  C 7.712201 1.596185 -3.141112
  H 8.794426 1.604413 -3.157912
  H 0.347211 -0.445808 1.040304
  H 0.398844 -0.577659 -0.778381
  H 0.398829 1.069499 0.025974
  H 3.197548 -0.453041 1.055138
  H 2.901036 0.925388 -1.767539
  H 5.442677 0.143041 -0.165549
  H 5.059390 1.475185 -2.893326
  H 7.555530 0.679762 -1.264603
  H 7.216123 2.013163 -3.994836
 17
 94.964677
  C 0.381269 0.017795 0.090889
  C 2.897919 -0.021976 0.172393
  C 3.540111 0.502308 -0.901170
  C 4.981567 0.546348 -0.991333
  C 5.639089 1.058956 -2.041006
  C 7.065060 1.105782 -2.136946
  C 7.721541 1.615206 -3.180100
  H 8.806492 1.635365 -3.221301
  H 0.185869 -0.447093 1.042790
  H 0.238605 -0.585677 -0.788652
  H 0.238534 1.082628 0.025964
  H 3.269674 -0.468410 1.086560
  H 2.961086 0.902450 -1.720540
  H 5.538272 0.138578 -0.156384
  H 5.083848 1.465251 -2.872940
  H 7.618515 0.693938 -1.293627
  H 7.207227 2.022644 -4.014352
 17
 111.296920
  C 0.182579 0.017352 0.091923
  C 2.970317 -0.038901 0.207104
  C 3.604935 0.481153 -0.857824
  C 5.044675 0.536800 -0.971811
  C 5.680104 1.056105 -2.035175
  C 7.112728 1.115410 -2.156632
  C 7.743899 1.628962 -3.208261
  H 8.824992 1.657071 -3.265822
  H 0.027481 -0.447973 1.044762
  H 0.103449 -0.580314 -0.786844
  H 0.103433 1.077661 0.022927
  H 3.289918 -0.480890 1.112165
  H 3.035240 0.883626 -1.681934
  H 5.615495 0.131602 -0.142109
  H 5.106354 1.459357 -2.860876
  H 7.673956 0.715092 -1.336962
  H 7.186654 2.052393 -4.075216
 17
 121.835293
  C -0.021448 0.016352 0.093846
  C 3.038221 -0.050764 0.231352
  C 3.665174 0.464901 -0.824556
  C 5.106985 0.532820 -0.963634
  C 5.717484 1.057454 -2.037895
  C 7.145598 1.128984 -2.184413
  C 7.752964 1.648894 -3.249061
  H 8.824764 1.688259 -3.329692
  H -0.124091 -0.450650 1.050110
  H -0.029722 -0.583414 -0.791477
  H -0.029781 1.083388 0.022483
  H 3.315624 -0.500443 1.152148
  H 3.100514 0.865674 -1.645186
  H 5.693635 0.132235 -0.143388
  H 5.127994 1.455008 -2.851950
  H 7.731649 0.729314 -1.366069
  H 7.194190 2.052412 -4.075342
 17
 128.331820
  C -0.229059 0.003756 0.119525
  C 3.100953 -0.053811 0.237590
  C 3.725082 0.458185 -0.810737
  C 5.164378 0.533092 -0.964076
  C 5.761839 1.061188 -2.045416
  C 7.187788 1.139615 -2.206206
  C 7.781456 1.662631 -3.277248
  H 8.856693 1.707991 -3.370153
  H -0.285383 -0.461343 1.071827
  H -0.198989 -0.597372 -0.764400
  H -0.199092 1.070692 0.050117
  H 3.349354 -0.507456 1.166468
  H 3.155420 0.863253 -1.640143
  H 5.757483 0.136197 -0.151471
  H 5.163962 1.455616 -2.853057
  H 7.784325 0.742427 -1.392997
  H 7.213809 2.061830 -4.094778
 17
 131.927388
  C -0.445215 -0.018064 0.164109
  C 3.157201 -0.048339 0.226343
  C 3.778593 0.459250 -0.812984
  C 5.219563 0.537947 -0.974078
  C 5.809823 1.067055 -2.057500
  C 7.238918 1.149268 -2.225942
  C 7.825567 1.673292 -3.299033
  H 8.900664 1.721652 -3.398059
  H -0.459634 -0.481516 1.113042
  H -0.394374 -0.617237 -0.719417
  H -0.394510 1.047651 0.093349
  H 3.383831 -0.506632 1.164762
  H 3.208953 0.864327 -1.642435
  H 5.815727 0.142400 -0.164184
  H 5.205282 1.460840 -2.863856
  H 7.837310 0.756105 -1.420922
  H 7.248628 2.073686 -4.119020
 17
 133.607670
  C -0.668609 -0.049035 0.228421
  C 3.201735 -0.034331 0.197925
  C 3.825784 0.469086 -0.832926
  C 5.274267 0.548088 -0.994853
  C 5.864176 1.076090 -2.076028
  C 7.293966 1.158204 -2.244346
  C 7.880940 1.682542 -3.318040
  H 8.948987 1.730653 -3.416674
  H -0.649426 -0.517958 1.188646
  H -0.614854 -0.646237 -0.656176
  H -0.615025 1.014144 0.155676
  H 3.412280 -0.492593 1.136218
  H 3.258470 0.875149 -1.664282
  H 5.866330 0.153876 -0.187757
  H 5.262698 1.467697 -2.877808
  H 7.891610 0.765448 -1.440221
  H 7.305228 2.082192 -4.136289
 17
 134.187060
  C -0.894095 -0.095032 0.318767
  C 3.235302 -0.011418 0.149706
  C 3.869468 0.488176 -0.873221
  C 5.321439 0.562723 -1.025176
  C 5.919261 1.088257 -2.101279
  C 7.349218 1.165511 -2.258841
  C 7.945351 1.688143 -3.328988
  H 9.012613 1.732983 -3.420271
  H -0.853357 -0.563948 1.278193
  H -0.858060 -0.689599 -0.563776
  H -0.858499 0.975027 0.243780
  H 3.436157 -0.469634 1.088274
  H 3.309562 0.896210 -1.709237
  H 5.911390 0.163741 -0.207728
  H 5.321048 1.484348 -2.912831
  H 7.940832 0.770099 -1.448658
  H 7.377122 2.088924 -4.150164
 17
 134.339065
  C -1.118776 -0.146327 0.425313
  C 3.260854 0.016151 0.093941
  C 3.907032 0.512340 -0.921747
  C 5.356446 0.579440 -1.058690
  C 5.969025 1.102478 -2.129547
  C 7.402653 1.172092 -2.272464
  C 8.011909 1.690981 -3.335169
  H 9.085305 1.730029 -3.414969
  H -1.065798 -0.614927 1.383701
  H -1.106917 -0.741137 -0.459690
  H -1.107539 0.922043 0.349616
  H 3.452822 -0.443210 1.034454
  H 3.356636 0.923274 -1.763187
  H 5.934381 0.178708 -0.238384
  H 5.381912 1.501583 -2.946932
  H 7.986928 0.771501 -1.452352
  H 7.453278 2.095412 -4.164027
 17
 134.626636
  C -1.347804 -0.201715 0.545692
  C 3.279897 0.048605 0.030626
  C 3.935389 0.539110 -0.972243
  C 5.391312 0.598053 -1.093656
  C 6.019938 1.117532 -2.156535
  C 7.448864 1.176845 -2.282065
  C 8.075577 1.692423 -3.339695
  H 9.145510 1.721829 -3.404050
  H -1.289193 -0.670689 1.501061
  H -1.357476 -0.798702 -0.344091
  H -1.357362 0.853636 0.470778
  H 3.455330 -0.413793 0.975434
  H 3.394117 0.953429 -1.818294
  H 5.959439 0.191963 -0.265498
  H 5.444891 1.520758 -2.980984
  H 8.017920 0.773444 -1.459864
  H 7.531361 2.098437 -4.175543
 17
 134.445376
  C -1.574858 -0.270515 0.679391
  C 3.277508 0.077070 -0.030368
  C 3.955496 0.565203 -1.028603
  C 5.409817 0.614457 -1.128827
  C 6.055371 1.129920 -2.183898
  C 7.490937 1.180639 -2.291000
  C 8.133378 1.691683 -3.338642
  H 9.207973 1.717383 -3.391349
  H -1.513582 -0.738819 1.636417
  H -1.602398 -0.866505 -0.205619
  H -1.602953 0.793791 0.605896
  H 3.437136 -0.385118 0.915080
  H 3.433144 0.983514 -1.884190
  H 5.962438 0.205580 -0.293709
  H 5.494251 1.536383 -3.015950
  H 8.048806 0.772776 -1.457604
  H 7.601053 2.102086 -4.181114
