12

H -2.482699383803501 0.7020616805608961 -0.05724917683507613
C -2.068227 0.590056 -0.02884
C -1.647966 -0.470778 0.638932
C -0.235046 -0.938936 0.797194
C 0.812975 -0.076489 0.106169
H 1.2362124290046999 -0.2380418370451931 0.1767527158819472
H -1.365459 1.234006 -0.540597
H -2.378059 -1.097235 1.139882
H -0.010355 -0.992171 1.867378
H -0.171272 -1.961386 0.406136
H 0.610784 -0.054698 -0.966026
H 0.752798 0.944896 0.489015
