 17
 0.000000
  C -1.019278 -0.097035 2.622552
  C -1.945873 -0.219610 1.418973
  C -3.012373 0.880382 1.409246
  C -1.183293 -0.145833 0.121608
  O -0.014072 0.088959 0.004452
  H -1.818371 -0.321187 -0.773084
  H -1.583655 -0.179210 3.546869
  H -0.511577 0.864227 2.607047
  H -0.267396 -0.879256 2.599733
  H -2.452628 -1.191640 1.437577
  H -2.544559 1.857628 1.312144
  H -3.572962 0.858333 2.338739
  H -3.704240 0.741460 0.582779
  O 3.273706 0.376347 -0.228899
  H 2.330498 0.187000 -0.132161
  H 4.362192 -1.215855 0.546307
  H 3.449804 1.175754 0.273751
 17
 -0.711585
  C -0.952042 -0.055304 2.599485
  C -1.890630 -0.213797 1.408917
  C -2.988643 0.856292 1.403171
  C -1.147736 -0.132382 0.104219
  O 0.019204 0.115768 -0.025904
  H -1.790058 -0.311079 -0.781124
  H -1.501324 -0.148974 3.532512
  H -0.474473 0.921262 2.571112
  H -0.175307 -0.815436 2.571630
  H -2.371547 -1.199130 1.439225
  H -2.549163 1.847001 1.310361
  H -3.549537 0.814223 2.333183
  H -3.677157 0.701968 0.575514
  O 3.176823 0.399302 -0.222352
  H 2.232215 0.212329 -0.195222
  H 4.152331 -1.285299 0.618774
  H 3.341510 1.095943 0.417033
 17
 -0.995842
  C -0.920863 -0.017771 2.597989
  C -1.858989 -0.215123 1.412771
  C -2.978378 0.832372 1.391883
  C -1.120750 -0.141229 0.105302
  O 0.040493 0.130363 -0.030478
  H -1.759982 -0.348981 -0.775449
  H -1.465640 -0.108555 3.533938
  H -0.464540 0.968280 2.553060
  H -0.128067 -0.761472 2.579650
  H -2.319940 -1.209248 1.461306
  H -2.558885 1.830379 1.286192
  H -3.539317 0.791287 2.321890
  H -3.662710 0.653224 0.565758
  O 3.124505 0.389565 -0.195202
  H 2.171166 0.249401 -0.219984
  H 4.003857 -1.352803 0.587747
  H 3.304221 1.014348 0.510528
 17
 -1.171398
  C -0.892584 0.033537 2.602501
  C -1.834435 -0.215323 1.430024
  C -2.969337 0.814414 1.382338
  C -1.104396 -0.173419 0.116699
  O 0.052948 0.107815 -0.033044
  H -1.745089 -0.416335 -0.753750
  H -1.430435 -0.036028 3.544238
  H -0.451825 1.024535 2.523798
  H -0.088540 -0.698218 2.602477
  H -2.280571 -1.213933 1.513142
  H -2.565019 1.815106 1.247208
  H -3.527565 0.791465 2.314594
  H -3.652785 0.601776 0.563465
  O 3.083681 0.324644 -0.200751
  H 2.125443 0.224439 -0.240557
  H 3.882866 -1.412664 0.660513
  H 3.278633 0.942275 0.507166
 17
 -1.313502
  C -0.852456 0.155828 2.591644
  C -1.807073 -0.210129 1.460946
  C -2.961490 0.791957 1.342721
  C -1.097214 -0.270061 0.137501
  O 0.051715 0.021280 -0.052897
  H -1.743065 -0.603132 -0.698329
  H -1.374977 0.159906 3.544489
  H -0.430770 1.143345 2.419783
  H -0.035522 -0.559729 2.642175
  H -2.233575 -1.205087 1.637815
  H -2.577479 1.784731 1.119019
  H -3.507977 0.837303 2.281068
  H -3.650600 0.499549 0.553721
  O 3.016836 0.122897 -0.222220
  H 2.053623 0.079817 -0.267027
  H 3.715704 -1.492536 0.884760
  H 3.243957 0.814126 0.403290
 17
 -1.412459
  C -0.763060 0.578903 2.487787
  C -1.749469 -0.075711 1.527439
  C -2.942144 0.838896 1.223382
  C -1.091496 -0.439538 0.226546
  O 0.033648 -0.158772 -0.085580
  H -1.749851 -0.995774 -0.468413
  H -1.247376 0.806703 3.433537
  H -0.381025 1.502448 2.059205
  H 0.078137 -0.084036 2.674704
  H -2.133810 -1.006662 1.961729
  H -2.601477 1.758459 0.752803
  H -3.455767 1.093859 2.146595
  H -3.648347 0.348181 0.557489
  O 2.887965 -0.314068 -0.167413
  H 1.923196 -0.274900 -0.224672
  H 3.458919 -1.405847 1.455898
  H 3.187136 0.541953 0.146813
 17
 -1.366406
  C -0.667439 0.569999 2.422548
  C -1.675461 -0.073757 1.477105
  C -2.914431 0.807662 1.276347
  C -1.068885 -0.343931 0.130609
  O 0.019854 0.017444 -0.224279
  H -1.727310 -0.908754 -0.556539
  H -1.114378 0.735383 3.399118
  H -0.337479 1.526011 2.022781
  H 0.203599 -0.070520 2.539035
  H -2.004041 -1.039322 1.880171
  H -2.629506 1.765636 0.847229
  H -3.396663 0.988148 2.233402
  H -3.629616 0.327601 0.612247
  O 2.724528 -0.412660 -0.040752
  H 1.772705 -0.269663 -0.156890
  H 3.146465 -1.266335 1.710262
  H 3.117718 0.446418 0.127859
 17
 -1.507481
  C -0.503421 0.549515 2.290641
  C -1.555576 -0.077796 1.382198
  C -2.855326 0.737092 1.363695
  C -1.061409 -0.198655 -0.029040
  O -0.045213 0.282650 -0.457196
  H -1.729186 -0.776330 -0.695852
  H -0.874027 0.615656 3.309978
  H -0.257303 1.550272 1.943171
  H 0.406517 -0.049006 2.287292
  H -1.792341 -1.090532 1.729366
  H -2.661855 1.745675 1.005499
  H -3.263905 0.799867 2.368638
  H -3.595890 0.273552 0.715711
  O 2.434194 -0.487549 0.214216
  H 1.540751 -0.210309 -0.051717
  H 2.656123 -1.080537 2.116107
  H 2.976014 0.293649 0.214460
 17
 2.144067
  C -0.495411 0.569410 2.305766
  C -1.521365 -0.064477 1.372512
  C -2.836809 0.725903 1.354739
  C -1.012490 -0.150892 -0.036132
  O -0.004625 0.378895 -0.453409
  H -1.652339 -0.735251 -0.721932
  H -0.884159 0.612099 3.319680
  H -0.264591 1.580529 1.977623
  H 0.424185 -0.011279 2.308930
  H -1.743261 -1.085813 1.704146
  H -2.659156 1.743135 1.013580
  H -3.256507 0.764675 2.356214
  H -3.561464 0.258852 0.691802
  O 2.243012 -0.486270 0.343979
  H 1.368118 -0.168712 0.029261
  H 2.838190 -1.272726 1.861067
  H 2.827392 0.281562 0.313947
 17
 7.758692
  C -0.543916 0.525146 2.373188
  C -1.539707 -0.073086 1.384338
  C -2.837393 0.748126 1.341477
  C -0.965578 -0.149076 -0.000409
  O 0.120851 0.368989 -0.356774
  H -1.563193 -0.696677 -0.735934
  H -0.976907 0.564530 3.369472
  H -0.277591 1.534103 2.068572
  H 0.361579 -0.075207 2.409370
  H -1.800270 -1.092935 1.698310
  H -2.625266 1.767205 1.025886
  H -3.295940 0.777100 2.327717
  H -3.545556 0.310141 0.641400
  O 2.269876 -0.477663 0.394915
  H 1.261704 -0.122655 0.064983
  H 2.887653 -1.199026 1.470573
  H 2.850019 0.288322 0.323054
 17
 -15.977681
  C -0.528774 0.526598 2.347410
  C -1.536233 -0.062923 1.364779
  C -2.876398 0.708215 1.351983
  C -0.960566 -0.088349 -0.027787
  O 0.234592 0.423731 -0.358340
  H -1.512802 -0.605852 -0.761500
  H -0.956489 0.530623 3.348785
  H -0.234339 1.542885 2.061890
  H 0.372029 -0.099742 2.383032
  H -1.790485 -1.097517 1.637139
  H -2.726339 1.767867 1.112642
  H -3.255967 0.729500 2.381077
  H -3.596467 0.236549 0.697721
  O 2.334493 -0.535236 0.516699
  H 1.132046 -0.049792 0.038735
  H 2.721245 -1.103487 1.245843
  H 2.919824 0.215517 0.532868
 17
 -30.074481
  C -0.598379 0.487738 2.424616
  C -1.564088 -0.089487 1.392109
  C -2.867594 0.725467 1.364581
  C -0.959322 -0.111741 0.026155
  O 0.229077 0.471351 -0.275883
  H -1.534645 -0.555136 -0.773594
  H -1.032221 0.440582 3.420082
  H -0.382987 1.527205 2.187303
  H 0.338020 -0.068942 2.426123
  H -1.828296 -1.120381 1.673694
  H -2.655058 1.755324 1.108618
  H -3.356236 0.694138 2.333559
  H -3.552897 0.318485 0.624836
  O 2.475945 -0.555848 0.422504
  H 1.066672 0.039996 0.051353
  H 2.860178 -1.129572 1.110958
  H 3.036882 0.226078 0.438753
 17
 -34.329119
  C -0.523503 0.372716 2.340343
  C -1.564422 -0.121937 1.337848
  C -2.839635 0.738408 1.428227
  C -1.042204 -0.113516 -0.057315
  O 0.126620 0.469410 -0.427948
  H -1.633702 -0.536279 -0.853609
  H -0.934930 0.366666 3.347583
  H -0.221898 1.388853 2.093270
  H 0.356382 -0.267245 2.325646
  H -1.852034 -1.152206 1.602185
  H -2.608199 1.772069 1.182766
  H -3.256935 0.698223 2.432688
  H -3.586978 0.377697 0.725874
  O 2.497962 -0.450604 0.597038
  H 0.906236 0.062936 0.001886
  H 2.697120 -0.879034 1.437172
  H 3.067390 0.319591 0.519907
 17
 -35.880833
  C -0.485881 0.194481 2.313883
  C -1.590711 -0.182502 1.329543
  C -2.746537 0.834280 1.416750
  C -1.091755 -0.279407 -0.071568
  O 0.063933 0.282816 -0.521380
  H -1.755667 -0.603440 -0.855616
  H -0.887199 0.261277 3.322491
  H -0.060032 1.160011 2.048512
  H 0.300062 -0.557592 2.308413
  H -2.000361 -1.162534 1.617309
  H -2.390709 1.826319 1.148948
  H -3.150346 0.866292 2.426966
  H -3.543213 0.557326 0.731897
  O 2.501055 -0.264027 0.690528
  H 0.844349 0.015498 0.000577
  H 2.557650 -0.419227 1.636564
  H 3.022631 0.516180 0.489745
 17
 -37.305722
  C -0.462069 0.006052 2.295549
  C -1.609906 -0.239418 1.318708
  C -2.625417 0.918649 1.401697
  C -1.143306 -0.429592 -0.084664
  O 0.005283 0.095726 -0.601652
  H -1.872347 -0.646446 -0.847754
  H -0.850657 0.143703 3.301718
  H 0.082704 0.906084 2.017747
  H 0.216622 -0.842752 2.303768
  H -2.137627 -1.155924 1.619849
  H -2.147752 1.854777 1.120997
  H -3.014450 1.012138 2.413636
  H -3.455241 0.739703 0.725210
  O 2.444707 -0.045115 0.815142
  H 0.754217 0.002210 0.014534
  H 2.445412 0.047474 1.770882
  H 2.957096 0.678479 0.448195
