 19
 0.000000
  C 1.045840 0.122083 0.321967
  C 2.516829 0.142861 0.344610
  C 3.235479 0.596335 1.539185
  H 2.558454 0.893373 2.332887
  C 3.174123 -0.290443 -0.798089
  C 4.559366 -0.374782 -0.980950
  C 5.179103 -0.855578 -2.110115
  C 4.555427 -1.371684 -3.326284
  H 3.472148 -1.364360 -3.317965
  H 6.260815 -0.861559 -2.112973
  H 0.607057 0.459740 1.255048
  H 0.690491 -0.887346 0.098519
  H 0.674720 0.744694 -0.494008
  H 3.887926 1.435303 1.294152
  H 3.893685 -0.191111 1.908254
  H 2.541224 -0.608093 -1.615222
  H 5.196620 -0.038146 -0.175250
  H 4.914534 -2.387207 -3.506847
  H 4.920904 -0.800374 -4.182410
 19
 -0.124772
  C 1.037937 0.135551 0.337563
  C 2.505189 0.162043 0.320440
  C 3.237677 0.594174 1.518824
  H 2.566690 0.900252 2.311231
  C 3.151995 -0.274821 -0.831951
  C 4.539779 -0.399775 -0.977081
  C 5.176917 -0.865163 -2.104086
  C 4.568098 -1.319272 -3.349843
  H 3.487125 -1.254705 -3.370495
  H 6.258053 -0.908837 -2.075724
  H 0.616088 0.693514 1.166182
  H 0.735608 -0.911188 0.442207
  H 0.612653 0.471646 -0.607121
  H 3.904850 1.424072 1.279528
  H 3.877744 -0.208625 1.888144
  H 2.525090 -0.548530 -1.668833
  H 5.162833 -0.114724 -0.143517
  H 4.877176 -2.350283 -3.542410
  H 4.988932 -0.750374 -4.182329
 19
 2.868723
  C 1.038023 0.197357 0.331052
  C 2.497974 0.137089 0.320634
  C 3.235549 0.606870 1.499717
  H 2.564762 0.859176 2.313523
  C 3.137866 -0.322730 -0.826533
  C 4.520125 -0.544486 -0.934077
  C 5.169391 -0.936363 -2.078933
  C 4.575502 -1.273210 -3.369049
  H 3.491635 -1.268077 -3.375479
  H 6.245407 -1.031620 -2.027477
  H 0.600946 0.870405 1.059700
  H 0.909125 -0.834714 0.714448
  H 0.568236 0.214342 -0.644064
  H 3.805025 1.498368 1.235109
  H 3.954433 -0.131351 1.846615
  H 2.522741 -0.518578 -1.691622
  H 5.133594 -0.335583 -0.072298
  H 4.941896 -2.249628 -3.692421
  H 4.945294 -0.574202 -4.122662
 19
 17.931158
  C 1.029464 0.298180 0.312489
  C 2.464281 0.139964 0.313360
  C 3.229134 0.578700 1.503310
  H 2.568718 0.841445 2.322690
  C 3.120768 -0.259334 -0.855740
  C 4.502209 -0.474519 -0.955611
  C 5.146104 -0.976558 -2.057253
  C 4.565167 -1.291319 -3.364295
  H 3.483784 -1.235539 -3.390361
  H 6.219281 -1.091078 -1.993453
  H 0.529268 0.794666 1.126790
  H 1.280259 -0.801596 0.650812
  H 0.485811 0.185960 -0.613304
  H 3.808005 1.461251 1.238703
  H 3.926440 -0.182242 1.845093
  H 2.515828 -0.437753 -1.732287
  H 5.107587 -0.301607 -0.076643
  H 4.887169 -2.284050 -3.677456
  H 4.974745 -0.604865 -4.108115
 19
 34.713796
  C 1.016121 0.389830 0.300324
  C 2.411801 0.104463 0.330623
  C 3.213358 0.550444 1.518630
  H 2.566022 0.856717 2.334468
  C 3.095554 -0.285313 -0.860704
  C 4.468547 -0.497647 -0.949479
  C 5.133332 -0.937409 -2.068473
  C 4.553233 -1.298663 -3.372335
  H 3.469128 -1.309104 -3.382381
  H 6.209481 -1.029250 -2.003641
  H 0.520808 0.852002 1.134868
  H 1.637689 -0.827125 0.610087
  H 0.441576 0.219655 -0.595154
  H 3.826150 1.402089 1.234055
  H 3.873192 -0.234493 1.877335
  H 2.491973 -0.438103 -1.742896
  H 5.071976 -0.293969 -0.076820
  H 4.929077 -2.274540 -3.681232
  H 4.908806 -0.594657 -4.128583
 19
 40.152865
  C 1.000714 0.437590 0.288165
  C 2.382210 0.069504 0.363931
  C 3.202844 0.568526 1.540507
  H 2.558525 0.913105 2.339675
  C 3.086869 -0.329130 -0.849249
  C 4.453338 -0.523251 -0.949617
  C 5.112126 -0.937174 -2.084036
  C 4.526614 -1.280020 -3.385164
  H 3.442116 -1.287792 -3.392306
  H 6.189440 -1.013098 -2.030175
  H 0.505401 0.909596 1.121687
  H 1.973010 -0.979166 0.580749
  H 0.425507 0.239825 -0.599526
  H 3.818686 1.403027 1.222992
  H 3.853986 -0.204050 1.933325
  H 2.469042 -0.493815 -1.722194
  H 5.060310 -0.324447 -0.079259
  H 4.899458 -2.253205 -3.705841
  H 4.883040 -0.569452 -4.135022
 19
 42.019282
  C 1.001639 0.437293 0.322859
  C 2.367724 0.091167 0.381312
  C 3.191384 0.582700 1.552377
  H 2.545821 0.960415 2.338167
  C 3.059040 -0.340098 -0.848346
  C 4.434735 -0.540458 -0.944988
  C 5.087216 -0.940115 -2.080507
  C 4.499208 -1.277481 -3.385058
  H 3.414033 -1.297768 -3.391919
  H 6.166074 -1.010790 -2.031878
  H 0.529680 0.968831 1.125662
  H 2.299076 -1.071731 0.367548
  H 0.399043 0.189392 -0.533271
  H 3.837738 1.396142 1.228567
  H 3.815509 -0.201364 1.972399
  H 2.441380 -0.463755 -1.726199
  H 5.038305 -0.349713 -0.071231
  H 4.883867 -2.243441 -3.715858
  H 4.846865 -0.556591 -4.128698
 19
 39.853366
  C 1.002107 0.446920 0.346589
  C 2.342168 0.127949 0.398298
  C 3.178196 0.613039 1.553278
  H 2.546650 1.015113 2.338023
  C 3.020047 -0.396554 -0.808025
  C 4.411545 -0.582505 -0.916150
  C 5.063666 -0.945041 -2.058500
  C 4.475209 -1.257141 -3.370186
  H 3.391812 -1.282772 -3.376003
  H 6.143006 -1.008433 -2.015510
  H 0.531739 0.980638 1.152177
  H 2.463606 -1.113207 0.165737
  H 0.380879 0.176082 -0.490364
  H 3.843870 1.404583 1.214918
  H 3.785692 -0.178517 1.981124
  H 2.403141 -0.512161 -1.688131
  H 5.012281 -0.399517 -0.037766
  H 4.863270 -2.213466 -3.722921
  H 4.817004 -0.518195 -4.097447
 19
 30.106126
  C 1.013955 0.473470 0.347676
  C 2.333759 0.174911 0.411579
  C 3.188176 0.642922 1.538220
  H 2.581011 1.093145 2.318492
  C 2.974655 -0.488354 -0.765051
  C 4.399376 -0.629791 -0.895506
  C 5.050773 -0.943819 -2.047051
  C 4.458775 -1.231438 -3.359349
  H 3.376383 -1.291694 -3.354705
  H 6.131367 -0.981741 -2.014215
  H 0.535108 1.027925 1.135811
  H 2.576724 -1.290554 -0.018104
  H 0.389659 0.173934 -0.475235
  H 3.892659 1.389419 1.173806
  H 3.761286 -0.168468 1.981973
  H 2.358766 -0.556840 -1.654452
  H 4.998400 -0.454371 -0.013971
  H 4.874610 -2.160849 -3.749880
  H 4.769444 -0.458078 -4.065458
 19
 20.146684
  C 1.038484 0.479555 0.355202
  C 2.357029 0.200952 0.411417
  C 3.229223 0.678541 1.507880
  H 2.651099 1.199107 2.264965
  C 2.942853 -0.592718 -0.711742
  C 4.387412 -0.680609 -0.860880
  C 5.041705 -0.932430 -2.027346
  C 4.449269 -1.180150 -3.344495
  H 3.368282 -1.260296 -3.338326
  H 6.123073 -0.951104 -1.999427
  H 0.552317 1.071484 1.111542
  H 2.611850 -1.536532 -0.208768
  H 0.416762 0.145240 -0.457722
  H 3.980976 1.357604 1.106813
  H 3.755386 -0.145492 1.987308
  H 2.366929 -0.540287 -1.631614
  H 4.983156 -0.534377 0.027934
  H 4.884060 -2.083969 -3.773471
  H 4.744924 -0.377677 -4.025194
 19
 17.254731
  C 1.027331 0.431565 0.421371
  C 2.360359 0.210385 0.410034
  C 3.249681 0.708314 1.481573
  H 2.693646 1.278021 2.220325
  C 2.921771 -0.585647 -0.716569
  C 4.378109 -0.687965 -0.845159
  C 5.039972 -0.952345 -2.003085
  C 4.455466 -1.178201 -3.330785
  H 3.369877 -1.211556 -3.341512
  H 6.120221 -0.998104 -1.962778
  H 0.555992 1.022736 1.186714
  H 2.543474 -1.605070 -0.500889
  H 0.379543 0.043153 -0.345154
  H 4.031934 1.337597 1.056499
  H 3.743532 -0.120811 1.988856
  H 2.433560 -0.326158 -1.660637
  H 4.965964 -0.562826 0.051220
  H 4.859120 -2.101333 -3.749195
  H 4.797567 -0.395013 -4.012533
 19
 17.578672
  C 1.016994 0.302976 0.507167
  C 2.363691 0.243262 0.407794
  C 3.252686 0.763323 1.468002
  H 2.691634 1.313267 2.217302
  C 2.925638 -0.452155 -0.781800
  C 4.373800 -0.665193 -0.857206
  C 5.042650 -1.015845 -1.988711
  C 4.473384 -1.216608 -3.325443
  H 3.393265 -1.131725 -3.365094
  H 6.112263 -1.162342 -1.916377
  H 0.533695 0.709210 1.378514
  H 2.415221 -1.431991 -0.743595
  H 0.364707 -0.044056 -0.275583
  H 4.014609 1.411010 1.035968
  H 3.772037 -0.055495 1.967146
  H 2.536012 -0.014530 -1.708227
  H 4.945492 -0.555992 0.051749
  H 4.783256 -2.192328 -3.703802
  H 4.916085 -0.498044 -4.019507
 19
 16.785939
  C 1.011278 0.328442 0.503880
  C 2.355960 0.209111 0.422574
  C 3.247145 0.722918 1.486188
  H 2.687026 1.267413 2.240074
  C 2.928899 -0.455680 -0.777521
  C 4.384524 -0.627255 -0.862354
  C 5.046242 -0.993408 -1.993004
  C 4.462568 -1.245205 -3.313506
  H 3.379421 -1.197524 -3.336805
  H 6.118975 -1.110493 -1.932673
  H 0.537403 0.820837 1.335605
  H 2.455856 -1.449792 -0.848238
  H 0.356087 -0.058090 -0.259392
  H 4.007830 1.375395 1.061917
  H 3.765393 -0.101082 1.976435
  H 2.546053 0.039085 -1.680282
  H 4.966453 -0.475513 0.032719
  H 4.800902 -2.216086 -3.678391
  H 4.869105 -0.526330 -4.028930
