 20
 0.000000
  H 1.426147 0.156193 0.442435
  C 2.505864 0.139812 0.400381
  C 3.241745 0.613188 1.575468
  H 2.574729 0.932013 2.368751
  C 3.072554 -0.329090 -0.766007
  C 4.448881 -0.417406 -0.987034
  C 5.128239 -0.870853 -2.118467
  C 4.616626 -1.389568 -3.412958
  C 3.125990 -1.498878 -3.686882
  H 2.989703 -1.899889 -4.687659
  O 6.441742 -0.866131 -2.107177
  H 3.897531 1.443816 1.307097
  H 3.898695 -0.170980 1.957037
  H 2.401252 -0.642755 -1.546027
  H 5.087401 -0.090970 -0.174432
  H 5.078241 -2.375537 -3.542444
  H 5.078858 -0.766337 -4.187586
  H 2.641088 -0.527390 -3.651638
  H 2.640545 -2.176916 -2.990631
  H 6.852230 -0.536982 -1.283855
 20
 4.398687
  H 1.444302 0.189128 0.520987
  C 2.520616 0.152307 0.430410
  C 3.302747 0.616192 1.583813
  H 2.656831 0.941771 2.392702
  C 3.025068 -0.329221 -0.767006
  C 4.375797 -0.442544 -1.048428
  C 5.123212 -0.879467 -2.139832
  C 4.649186 -1.402284 -3.444467
  C 3.157659 -1.512430 -3.719542
  H 3.018252 -1.913388 -4.720264
  O 6.444602 -0.849147 -2.066965
  H 3.959599 1.444768 1.304472
  H 3.959431 -0.175114 1.956110
  H 2.292276 -0.626026 -1.507432
  H 4.816936 -0.081019 -0.146074
  H 5.118596 -2.385326 -3.569740
  H 5.118681 -0.778089 -4.214069
  H 2.673895 -0.540511 -3.685094
  H 2.673701 -2.191486 -3.023547
  H 6.810838 -0.509974 -1.221127
 20
 14.123676
  H 1.465459 0.198024 0.537496
  C 2.537500 0.152685 0.428005
  C 3.336931 0.610154 1.572442
  H 2.697306 0.936561 2.385453
  C 3.007177 -0.331188 -0.777680
  C 4.350000 -0.459348 -1.093570
  C 5.138935 -0.884331 -2.154485
  C 4.676910 -1.409591 -3.461933
  C 3.179608 -1.508408 -3.706655
  H 3.011409 -1.908917 -4.703263
  O 6.438095 -0.840764 -2.049216
  H 3.990184 1.439730 1.294907
  H 3.988241 -0.183089 1.944716
  H 2.232925 -0.611033 -1.478438
  H 4.612344 -0.079553 -0.145197
  H 5.141582 -2.393438 -3.589096
  H 5.141098 -0.787176 -4.234695
  H 2.705632 -0.530907 -3.657312
  H 2.706032 -2.180199 -2.994461
  H 6.776529 -0.495287 -1.187987
 20
 27.119063
  H 1.473215 0.214175 0.573461
  C 2.545379 0.161571 0.448577
  C 3.362042 0.612896 1.581996
  H 2.732480 0.941603 2.400962
  C 2.991445 -0.324951 -0.764953
  C 4.330022 -0.470672 -1.122451
  C 5.136063 -0.887946 -2.164496
  C 4.692236 -1.414428 -3.472592
  C 3.197627 -1.515536 -3.722655
  H 3.030645 -1.917009 -4.719400
  O 6.440761 -0.834940 -2.037938
  H 4.016863 1.442327 1.299732
  H 4.013186 -0.185151 1.949902
  H 2.177478 -0.595818 -1.447292
  H 4.449566 -0.081221 -0.148143
  H 5.160572 -2.398894 -3.595328
  H 5.159985 -0.789529 -4.243335
  H 2.723814 -0.539443 -3.673172
  H 2.724079 -2.184786 -3.010446
  H 6.757947 -0.488985 -1.178627
 20
 41.904274
  H 1.475199 0.210773 0.565000
  C 2.547208 0.159651 0.443678
  C 3.354988 0.608311 1.571400
  H 2.720883 0.934745 2.385649
  C 2.999878 -0.327138 -0.771579
  C 4.351621 -0.479477 -1.145091
  C 5.162663 -0.891472 -2.173764
  C 4.702792 -1.416793 -3.477971
  C 3.199987 -1.499990 -3.683264
  H 2.995141 -1.899166 -4.673522
  O 6.475171 -0.837932 -2.045846
  H 4.008341 1.439439 1.293434
  H 4.004835 -0.188139 1.942932
  H 2.165712 -0.595468 -1.448515
  H 4.335182 -0.090858 -0.173098
  H 5.159104 -2.403481 -3.610295
  H 5.158448 -0.797139 -4.257322
  H 2.741133 -0.520044 -3.617364
  H 2.741579 -2.160236 -2.956408
  H 6.790650 -0.492166 -1.186585
 20
 54.377280
  H 1.472634 0.222854 0.591004
  C 2.543455 0.171495 0.469899
  C 3.363684 0.622539 1.612032
  H 2.735607 0.947733 2.429500
  C 2.992620 -0.310450 -0.740708
  C 4.351120 -0.478201 -1.145914
  C 5.153294 -0.893937 -2.183038
  C 4.705990 -1.423581 -3.492690
  C 3.209509 -1.519116 -3.726288
  H 3.027545 -1.921389 -4.720066
  O 6.458026 -0.841122 -2.058252
  H 4.016882 1.451153 1.334593
  H 4.013370 -0.173786 1.978007
  H 2.162633 -0.572552 -1.411094
  H 4.240366 -0.083657 -0.157162
  H 5.171667 -2.412484 -3.617366
  H 5.170250 -0.798147 -4.269505
  H 2.740838 -0.540491 -3.670818
  H 2.741764 -2.184252 -3.005527
  H 6.772684 -0.496148 -1.199920
 20
 65.903526
  H 1.466710 0.238606 0.574269
  C 2.541451 0.182568 0.466861
  C 3.350965 0.612940 1.625936
  H 2.708487 0.932379 2.453624
  C 3.006990 -0.282708 -0.742208
  C 4.378118 -0.472234 -1.144892
  C 5.161317 -0.893219 -2.195208
  C 4.703529 -1.429749 -3.490119
  C 3.209889 -1.527877 -3.710007
  H 3.021805 -1.933708 -4.694531
  O 6.468711 -0.838625 -2.089999
  H 4.013718 1.443206 1.367441
  H 3.994467 -0.196005 1.983285
  H 2.188543 -0.521995 -1.426213
  H 4.180600 -0.091003 -0.172140
  H 5.163288 -2.404733 -3.613234
  H 5.153447 -0.814176 -4.262334
  H 2.741320 -0.549984 -3.656986
  H 2.749463 -2.189328 -2.983043
  H 6.795199 -0.486005 -1.238255
 20
 73.858909
  H 1.456618 0.297879 0.520106
  C 2.540014 0.219390 0.448818
  C 3.314081 0.581928 1.651861
  H 2.659038 0.867581 2.457573
  C 3.049920 -0.203478 -0.750146
  C 4.423941 -0.463430 -1.151741
  C 5.185148 -0.880130 -2.185660
  C 4.696613 -1.451996 -3.479424
  C 3.182867 -1.564008 -3.671373
  H 2.976744 -1.979108 -4.669787
  O 6.503266 -0.807255 -2.137281
  H 4.005533 1.410059 1.468909
  H 3.920406 -0.268452 1.982815
  H 2.263622 -0.385233 -1.485681
  H 4.167824 -0.090051 -0.166083
  H 5.173530 -2.431995 -3.612964
  H 5.125764 -0.812795 -4.263272
  H 2.703496 -0.580988 -3.612466
  H 2.736647 -2.237447 -2.932109
  H 6.852561 -0.434457 -1.315342
 20
 77.706789
  H 1.455637 0.340128 0.454442
  C 2.528623 0.242578 0.430726
  C 3.256734 0.541881 1.692497
  H 2.568515 0.800111 2.481682
  C 3.094502 -0.127643 -0.744236
  C 4.465191 -0.454626 -1.182209
  C 5.205909 -0.864548 -2.208776
  C 4.668635 -1.472289 -3.480128
  C 3.179897 -1.584736 -3.616435
  H 2.950595 -2.023373 -4.581490
  O 6.535931 -0.801100 -2.232613
  H 3.956660 1.372791 1.576064
  H 3.832824 -0.331561 2.011577
  H 2.356011 -0.241785 -1.549123
  H 4.177884 -0.084182 -0.163923
  H 5.141374 -2.452861 -3.588467
  H 5.073289 -0.844075 -4.280871
  H 2.709110 -0.611189 -3.581490
  H 2.762381 -2.228641 -2.853657
  H 6.929922 -0.402809 -1.434689
 20
 80.967593
  H 1.458248 0.394521 0.429922
  C 2.528277 0.270513 0.435601
  C 3.223448 0.502958 1.731983
  H 2.505715 0.746699 2.519995
  C 3.123240 -0.061515 -0.733410
  C 4.492505 -0.436266 -1.202829
  C 5.216840 -0.847756 -2.225394
  C 4.666008 -1.490333 -3.480724
  C 3.160499 -1.616573 -3.602755
  H 2.927163 -2.092519 -4.551660
  O 6.550490 -0.786029 -2.272359
  H 3.934190 1.325281 1.665515
  H 3.773668 -0.388313 2.035764
  H 2.419790 -0.115885 -1.576135
  H 4.176208 -0.060322 -0.173596
  H 5.139711 -2.471626 -3.552536
  H 5.058901 -0.884083 -4.301747
  H 2.680962 -0.639978 -3.607544
  H 2.746948 -2.238128 -2.809739
  H 6.954080 -0.368363 -1.492988
 20
 84.003481
  H 1.455405 0.465670 0.398030
  C 2.523737 0.304678 0.432833
  C 3.185500 0.447162 1.759488
  H 2.458291 0.667334 2.532358
  C 3.144703 0.014569 -0.735018
  C 4.512030 -0.411113 -1.219152
  C 5.223799 -0.835510 -2.244006
  C 4.657187 -1.515748 -3.474587
  C 3.155231 -1.647997 -3.562645
  H 2.903234 -2.163132 -4.495231
  O 6.555521 -0.764753 -2.312484
  H 3.919484 1.249258 1.754952
  H 3.703623 -0.469297 2.030461
  H 2.477909 0.033834 -1.609276
  H 4.165753 -0.022648 -0.192352
  H 5.129182 -2.492355 -3.522460
  H 5.030960 -0.939454 -4.317189
  H 2.672670 -0.670555 -3.595191
  H 2.757576 -2.239150 -2.736469
  H 6.966764 -0.322302 -1.550828
 20
 86.721266
  H 1.462610 0.526753 0.373919
  C 2.519396 0.333457 0.429462
  C 3.147107 0.389034 1.772243
  H 2.397647 0.591556 2.546222
  C 3.162577 0.081297 -0.739917
  C 4.529572 -0.382423 -1.234725
  C 5.228587 -0.824181 -2.256631
  C 4.646759 -1.539462 -3.461494
  C 3.143998 -1.675664 -3.517723
  H 2.876357 -2.221433 -4.424747
  O 6.559990 -0.749417 -2.346039
  H 3.904034 1.171255 1.826807
  H 3.638572 -0.557068 2.007872
  H 2.533021 0.163374 -1.630729
  H 4.156192 0.028248 -0.212541
  H 5.122074 -2.523513 -3.487240
  H 5.008558 -0.984815 -4.333241
  H 2.659863 -0.701815 -3.574472
  H 2.761865 -2.236478 -2.662931
  H 6.979448 -0.287943 -1.601691
 20
 88.789637
  H 1.467504 0.577962 0.343145
  C 2.514390 0.356318 0.419462
  C 3.104909 0.327255 1.779761
  H 2.347537 0.504791 2.533183
  C 3.183744 0.143425 -0.746206
  C 4.547866 -0.357996 -1.245073
  C 5.235577 -0.819268 -2.262644
  C 4.634034 -1.563966 -3.440664
  C 3.129608 -1.700444 -3.461203
  H 2.840167 -2.275995 -4.351918
  O 6.566385 -0.738412 -2.379037
  H 3.878835 1.087193 1.898162
  H 3.568733 -0.640815 1.977242
  H 2.592563 0.292214 -1.654663
  H 4.149339 0.079876 -0.222331
  H 5.109895 -2.550163 -3.449765
  H 4.977927 -1.032326 -4.330673
  H 2.643631 -0.727746 -3.534264
  H 2.765820 -2.234266 -2.581340
  H 6.995433 -0.255602 -1.655097
 20
 90.146135
  H 1.469087 0.633422 0.326077
  C 2.510968 0.380944 0.415328
  C 3.065869 0.257664 1.780238
  H 2.288844 0.406706 2.531221
  C 3.204435 0.214555 -0.749995
  C 4.552387 -0.331693 -1.259764
  C 5.233738 -0.813222 -2.269219
  C 4.620424 -1.595318 -3.417117
  C 3.112654 -1.732363 -3.409323
  H 2.810835 -2.334256 -4.269136
  O 6.564008 -0.734379 -2.400651
  H 3.850982 0.992236 1.961831
  H 3.508875 -0.730879 1.929839
  H 2.654619 0.447112 -1.660710
  H 4.142954 0.135764 -0.225848
  H 5.099265 -2.587301 -3.401023
  H 4.954200 -1.087406 -4.332164
  H 2.625382 -0.765601 -3.505163
  H 2.763726 -2.233429 -2.506957
  H 6.998435 -0.226387 -1.697703
