 13
 0.000000
  H -1.341894 -0.459439 0.662347
  C -0.876603 0.305321 0.046897
  H -1.212123 0.175717 -0.986519
  C -1.166740 1.667746 0.544751
  C -2.475519 2.060349 1.117155
  H -0.542658 2.473720 0.192714
  H 0.202972 0.148637 0.052274
  H -2.994498 1.198554 1.531663
  H -3.124940 2.519403 0.360335
  H -2.340307 2.804124 1.905173
  O 2.392309 -0.332395 -0.335120
  H 2.830563 0.241293 0.296755
  H 3.020644 -0.531117 -1.031368
 13
 -0.407191
  H -1.466179 -0.471340 0.591314
  C -0.957343 0.230305 -0.064646
  H -1.365745 0.084964 -1.076621
  C -1.140149 1.620145 0.400926
  C -2.350820 2.052492 1.131310
  H -0.477817 2.380476 0.023416
  H 0.097609 -0.035915 -0.123792
  H -2.825863 1.208621 1.633439
  H -3.092971 2.495941 0.456803
  H -2.111028 2.817191 1.872916
  O 2.451910 -0.350684 -0.360175
  H 2.493213 0.259185 0.380144
  H 3.271170 -0.255352 -0.849895
 13
 -0.174997
  H -1.474903 -0.470192 0.594678
  C -0.968686 0.232634 -0.067843
  H -1.386169 0.088543 -1.075713
  C -1.143319 1.621894 0.399017
  C -2.344158 2.054669 1.145384
  H -0.487100 2.381246 0.010633
  H 0.083577 -0.039128 -0.140915
  H -2.810569 1.212340 1.655407
  H -3.098031 2.496423 0.478432
  H -2.094011 2.823864 1.883791
  O 2.504786 -0.369558 -0.452632
  H 2.299468 0.288262 0.216914
  H 3.441223 -0.278330 -0.642049
 13
 -0.052264
  H -1.448348 -0.438462 0.625231
  C -0.944941 0.267335 -0.034030
  H -1.329519 0.110725 -1.052552
  C -1.171409 1.654159 0.421298
  C -2.399943 2.054969 1.140313
  H -0.528209 2.433288 0.040484
  H 0.129526 0.063513 -0.038265
  H -2.849974 1.202911 1.646833
  H -3.154365 2.468225 0.455368
  H -2.188338 2.836860 1.876935
  O 2.542036 -0.423342 -0.535880
  H 2.350754 0.248992 0.125734
  H 3.496320 -0.408357 -0.653759
 13
 -0.050018
  H -1.475027 -0.446945 0.603335
  C -0.959207 0.261766 -0.043337
  H -1.343983 0.115763 -1.063439
  C -1.164513 1.647611 0.421051
  C -2.379143 2.059527 1.156553
  H -0.517608 2.419641 0.036297
  H 0.100845 0.014195 -0.076927
  H -2.834806 1.209051 1.664836
  H -3.135912 2.486685 0.482101
  H -2.149294 2.833696 1.894760
  O 2.524412 -0.365140 -0.525220
  H 2.316118 0.324885 0.110074
  H 3.481817 -0.417589 -0.558987
 13
 -0.054818
  H -1.509751 -0.451894 0.603115
  C -0.971779 0.248512 -0.033805
  H -1.343878 0.115213 -1.058373
  C -1.155242 1.637871 0.434299
  C -2.359038 2.067421 1.177701
  H -0.500485 2.400541 0.045525
  H 0.083696 -0.019300 -0.052965
  H -2.828102 1.223606 1.680747
  H -3.108986 2.513904 0.510623
  H -2.112368 2.829738 1.919354
  O 2.466326 -0.295388 -0.507211
  H 2.287284 0.411462 0.119366
  H 3.418931 -0.414378 -0.481816
 13
 -0.148680
  H -1.525769 -0.463786 0.583168
  C -0.979060 0.228139 -0.055308
  H -1.345917 0.094416 -1.081575
  C -1.148383 1.621536 0.404896
  C -2.323225 2.058767 1.189082
  H -0.506082 2.379768 -0.012260
  H 0.073989 -0.052992 -0.069125
  H -2.775699 1.219287 1.714209
  H -3.095989 2.503257 0.547065
  H -2.048053 2.825003 1.916754
  O 2.412473 -0.219023 -0.486755
  H 2.294708 0.503592 0.136293
  H 3.345438 -0.440222 -0.431546
 13
 -0.320571
  H -1.622511 -0.362911 -0.043593
  C -0.940030 0.426381 -0.353020
  H -1.122656 0.633503 -1.415389
  C -1.116010 1.636829 0.474405
  C -2.344001 1.894463 1.256723
  H -0.407243 2.440560 0.361069
  H 0.084357 0.056503 -0.292094
  H -2.871280 0.966489 1.471649
  H -3.038417 2.551976 0.715800
  H -2.113511 2.396988 2.198499
  O 2.373030 -0.163564 -0.287983
  H 2.288092 0.340143 0.525441
  H 3.236729 -0.581115 -0.258804
 13
 -0.326764
  H -1.561020 -0.451047 0.286721
  C -0.972684 0.287657 -0.253489
  H -1.247364 0.238922 -1.313950
  C -1.180847 1.641308 0.298219
  C -2.240545 1.952276 1.281233
  H -0.628322 2.459636 -0.132773
  H 0.080692 0.002626 -0.206998
  H -2.565710 1.053046 1.801814
  H -3.123952 2.392836 0.798770
  H -1.895436 2.681894 2.017224
  O 2.282830 -0.097079 -0.270570
  H 2.355908 0.543658 0.440142
  H 3.144188 -0.501207 -0.392969
 13
 -0.333855
  H -1.585093 -0.430913 0.159229
  C -0.987759 0.314574 -0.360794
  H -1.194109 0.245365 -1.433814
  C -1.267247 1.668492 0.151297
  C -2.157068 1.927148 1.306125
  H -0.846113 2.510607 -0.368914
  H 0.068953 0.052659 -0.239896
  H -2.324729 1.017536 1.881299
  H -3.138242 2.301764 0.984585
  H -1.738798 2.691021 1.966939
  O 2.227314 -0.125881 -0.062619
  H 2.359269 0.475230 0.674008
  H 3.085647 -0.482479 -0.301070
 13
 1.834026
  H -1.454767 -0.470227 0.012476
  C -0.940194 0.344107 -0.487732
  H -0.987922 0.254853 -1.575546
  C -1.344480 1.669514 0.003925
  C -1.998205 1.869901 1.316333
  H -1.110719 2.541400 -0.585837
  H 0.130912 0.173963 -0.287309
  H -2.044554 0.936197 1.873395
  H -3.021104 2.239566 1.199250
  H -1.466537 2.616637 1.921119
  O 1.939370 -0.084901 0.124757
  H 2.039297 0.430041 0.930604
  H 2.827674 -0.396989 -0.084657
 13
 16.853502
  H -1.336818 -0.557820 -0.021796
  C -0.890814 0.320393 -0.478566
  H -0.764276 0.229066 -1.552904
  C -1.332649 1.634056 -0.044355
  C -1.944867 1.874151 1.288882
  H -1.089361 2.509844 -0.630351
  H 0.205827 0.186490 -0.234567
  H -1.863974 0.999885 1.929067
  H -3.002618 2.151934 1.189099
  H -1.466333 2.713541 1.795227
  O 1.707636 -0.027560 0.135030
  H 1.760834 0.316829 1.033593
  H 2.674458 -0.264594 -0.039155
 13
 54.400366
  H -1.383381 -0.512951 0.078360
  C -0.988515 0.332101 -0.470138
  H -0.825964 0.157439 -1.524832
  C -1.334566 1.589629 -0.056685
  C -1.897225 1.889982 1.287065
  H -1.106958 2.441049 -0.681910
  H 0.396512 0.139052 -0.150288
  H -1.893493 1.005561 1.920376
  H -2.928275 2.237293 1.191213
  H -1.337473 2.685662 1.780069
  O 1.485936 -0.014730 0.134273
  H 1.614658 0.467175 0.957099
  H 2.959495 -0.368753 -0.083972
 13
 45.976015
  H -1.567005 -0.372997 -0.171800
  C -1.175898 0.537444 -0.599248
  H -0.893835 0.485505 -1.639708
  C -1.354115 1.703921 0.009377
  C -1.895218 1.857396 1.388933
  H -1.025302 2.616303 -0.466090
  H 0.556440 0.133589 -0.175494
  H -2.026149 0.887666 1.871435
  H -2.862831 2.357398 1.349210
  H -1.234532 2.476727 1.996999
  O 1.450854 -0.153993 0.106164
  H 1.600444 0.189367 0.989668
  H 3.307295 -0.707788 -0.263327
 13
 43.952572
  H -2.002210 -0.350536 -0.198524
  C -1.401549 0.456989 -0.585505
  H -0.964782 0.300019 -1.558016
  C -1.281869 1.600891 0.067783
  C -1.917980 1.891022 1.385357
  H -0.686652 2.404621 -0.348234
  H 0.722108 0.062110 -0.155358
  H -2.317647 0.985716 1.835771
  H -2.736160 2.598588 1.248339
  H -1.202455 2.347318 2.067660
  O 1.611930 -0.142617 0.159023
  H 1.706523 0.279007 1.015416
  H 3.770681 -0.503626 -0.464510
