 19
 0.000000
  C -3.685004 -0.547813 -0.116360
  C -2.236558 -0.863313 -0.364272
  C -1.928856 -1.150106 -1.822150
  C -1.186652 0.218560 0.070189
  C -1.729676 1.527234 0.534788
  O -0.027686 -0.017699 -0.006398
  H -4.289980 -1.411854 -0.396364
  H -4.030634 0.286651 -0.722618
  H -3.882132 -0.350598 0.935693
  H -1.953898 -1.727151 0.254572
  H -2.133517 -0.292001 -2.463034
  H -2.568700 -1.964751 -2.163292
  H -0.885408 -1.432768 -1.953519
  H -2.809404 1.559295 0.600292
  H -1.373644 2.284596 -0.165439
  H -1.287017 1.729143 1.510877
  O 2.713642 -0.026538 -0.018160
  H 3.203565 -0.726382 0.432099
  H 3.362725 0.467219 -0.535493
 19
 -0.397791
  C -3.723975 -0.477075 -0.207918
  C -2.282412 -0.856857 -0.361164
  C -1.897050 -1.219262 -1.777512
  C -1.191652 0.213500 0.099921
  C -1.735910 1.484639 0.632815
  O -0.045258 -0.051271 -0.032398
  H -4.329970 -1.323967 -0.537216
  H -4.006064 0.354930 -0.848892
  H -4.000155 -0.284082 0.823691
  H -2.024971 -1.663071 0.343057
  H -2.075587 -0.401735 -2.473764
  H -2.526304 -2.045569 -2.109720
  H -0.852173 -1.509038 -1.840897
  H -2.804292 1.488239 0.797846
  H -1.465671 2.259305 -0.087794
  H -1.196222 1.702465 1.554819
  O 2.718672 -0.002019 -0.114475
  H 3.223310 -0.698024 0.317141
  H 3.342643 0.547456 -0.599044
 19
 -0.358309
  C -3.724589 -0.392100 -0.307699
  C -2.294326 -0.841858 -0.353145
  C -1.855207 -1.321887 -1.717393
  C -1.185109 0.203491 0.117501
  C -1.710048 1.442298 0.742643
  O -0.044592 -0.054790 -0.069188
  H -4.345603 -1.194896 -0.710810
  H -3.912021 0.464268 -0.947758
  H -4.077047 -0.198364 0.703429
  H -2.110857 -1.606584 0.417621
  H -1.958257 -0.549365 -2.476816
  H -2.498813 -2.143562 -2.027230
  H -0.819047 -1.648926 -1.701957
  H -2.768444 1.422283 0.969586
  H -1.494571 2.254034 0.044935
  H -1.119921 1.624706 1.640702
  O 2.686848 0.071850 -0.213742
  H 3.214979 -0.635787 0.168761
  H 3.291870 0.669900 -0.666939
 19
 -0.585169
  C -3.722267 -0.299531 -0.413698
  C -2.323718 -0.837843 -0.351383
  C -1.851886 -1.435077 -1.654226
  C -1.189854 0.176904 0.128096
  C -1.686269 1.371332 0.845860
  O -0.059561 -0.077549 -0.117180
  H -4.361058 -1.053777 -0.879725
  H -3.799258 0.575387 -1.058170
  H -4.141909 -0.081870 0.564304
  H -2.222731 -1.558397 0.476649
  H -1.882077 -0.714181 -2.470892
  H -2.520539 -2.248824 -1.934803
  H -0.832353 -1.804734 -1.568007
  H -2.719832 1.313952 1.151905
  H -1.548694 2.219416 0.171054
  H -1.030757 1.529461 1.703679
  O 2.688343 0.186957 -0.296073
  H 3.249246 -0.527351 0.021850
  H 3.260774 0.840974 -0.708226
 19
 -0.434010
  C -3.686122 -0.234120 -0.505345
  C -2.324602 -0.842695 -0.343774
  C -1.828104 -1.527734 -1.592948
  C -1.179724 0.166697 0.136634
  C -1.663149 1.318729 0.930486
  O -0.060969 -0.070809 -0.162641
  H -4.329343 -0.952963 -1.015147
  H -3.660740 0.639008 -1.157254
  H -4.160178 0.022100 0.435631
  H -2.286124 -1.520949 0.521507
  H -1.780082 -0.847282 -2.441986
  H -2.526327 -2.318347 -1.865213
  H -0.835571 -1.947790 -1.442308
  H -2.701379 1.260635 1.226339
  H -1.499141 2.210884 0.324069
  H -1.015381 1.398786 1.804891
  O 2.588836 0.288636 -0.374241
  H 3.170659 -0.426112 -0.099156
  H 3.138832 0.973858 -0.766460
 19
 -1.110882
  C -3.632955 -0.098174 -0.654537
  C -2.365775 -0.852138 -0.369711
  C -1.895226 -1.690484 -1.531080
  C -1.160780 0.100645 0.103035
  C -1.586773 1.196312 1.001590
  O -0.070739 -0.144229 -0.280625
  H -4.332613 -0.774347 -1.148146
  H -3.472566 0.711052 -1.368558
  H -4.115844 0.295483 0.234214
  H -2.443547 -1.456129 0.547953
  H -1.774223 -1.100409 -2.441842
  H -2.649117 -2.448779 -1.742935
  H -0.948397 -2.178836 -1.311804
  H -2.579433 1.074418 1.419532
  H -1.544227 2.122186 0.422984
  H -0.838860 1.272276 1.795254
  O 2.550743 0.537980 -0.338308
  H 3.168692 -0.191434 -0.232561
  H 3.043986 1.286022 -0.689594
 19
 -1.841317
  C -3.518429 0.008383 -0.781315
  C -2.370988 -0.867794 -0.360848
  C -1.929397 -1.834665 -1.428250
  C -1.132579 0.058832 0.091297
  C -1.509199 1.081525 1.085869
  O -0.076120 -0.155693 -0.389959
  H -4.264756 -0.616477 -1.272108
  H -3.215769 0.735253 -1.535333
  H -3.990418 0.527272 0.044136
  H -2.559555 -1.390798 0.585593
  H -1.723564 -1.336539 -2.371589
  H -2.738566 -2.545270 -1.605541
  H -1.045806 -2.390459 -1.127239
  H -2.474022 0.920577 1.550879
  H -1.502611 2.048413 0.576197
  H -0.719778 1.105961 1.838899
  O 2.387269 0.730156 -0.294901
  H 3.024685 0.011763 -0.346712
  H 2.812399 1.522121 -0.639815
 19
 -1.486177
  C -3.402145 0.071602 -0.876039
  C -2.357096 -0.871034 -0.334468
  C -1.884619 -1.887761 -1.337476
  C -1.136288 0.073186 0.129625
  C -1.524239 1.025268 1.184535
  O -0.098677 -0.073672 -0.412343
  H -4.117512 -0.500287 -1.467076
  H -2.952265 0.786382 -1.565578
  H -3.931071 0.615089 -0.101660
  H -2.634486 -1.352643 0.610011
  H -1.564420 -1.425174 -2.268143
  H -2.717313 -2.554507 -1.567833
  H -1.071637 -2.492727 -0.946399
  H -2.508310 0.856403 1.603075
  H -1.467926 2.027861 0.755359
  H -0.767265 0.965580 1.967921
  O 2.220158 0.763293 -0.418126
  H 2.841755 0.035056 -0.513678
  H 2.648034 1.555056 -0.761168
