19
 0
 C -1.49784879 1.95899013 -1.14927764
 C -1.81339546 0.46883376 -1.10539279
 C -1.07696444 -0.18989773 0.05989246
 C -3.29606932 0.09885110 -1.03752694
 C -4.35872994 1.15475350 -0.87074468
 O -3.63688017 -1.08814475 -1.09790346
 H -0.42102794 2.12247142 -1.26727045
 H -1.81052539 2.46465289 -0.22923152
 H -1.99738155 2.44320962 -1.99489483
 H -1.44406561 0.03344401 -2.04321372
 H -1.43968085 0.18887903 1.02171675
 H 0.00000000 0.00000000 0.00000000
 H -1.22334917 -1.27553849 0.05691824
 H -3.96870975 2.17064148 -0.89341730
 H -4.86209108 1.00277603 0.08779058
 H -5.08050730 1.05586512 -1.68677088
 O 2.30000000 0.00000000 0.00000000
 H 2.98474093 0.23913281 0.64258244
 H 2.78881206 -0.44606170 -0.70784698
