 19
 0.000000
  C -1.502432 1.978858 -1.167245
  C -1.781975 0.508842 -1.109698
  C -1.123305 -0.183141 0.057928
  C -3.294295 0.046592 -1.041376
  C -4.279909 1.141354 -0.847048
  O -3.555767 -1.108286 -1.117804
  H -0.424721 2.105198 -1.297431
  H -1.752504 2.491913 -0.241239
  H -1.980158 2.459922 -2.015598
  H -1.476005 0.048180 -2.057223
  H -1.449365 0.207119 1.021542
  H -0.046326 0.011247 -0.001706
  H -1.293213 -1.256488 0.039936
  H -3.859721 2.135879 -0.855276
  H -4.775945 0.946243 0.106657
  H -5.032128 1.034592 -1.631433
  O 2.217153 0.016622 -0.005057
  H 2.868708 0.252288 0.658922
  H 2.688234 -0.434076 -0.711442
 19
 -0.595428
  C -1.452651 1.981901 -1.169932
  C -1.720812 0.497521 -1.107457
  C -1.068588 -0.183015 0.053381
  C -3.239394 0.033524 -1.034388
  C -4.225506 1.123198 -0.823619
  O -3.497584 -1.118291 -1.127306
  H -0.376257 2.114155 -1.313951
  H -1.695704 2.493532 -0.239650
  H -1.943027 2.459263 -2.016185
  H -1.431980 0.022014 -2.058757
  H -1.372630 0.236047 1.017450
  H 0.002318 0.018575 -0.039279
  H -1.234577 -1.263389 0.045139
  H -3.808361 2.118778 -0.820204
  H -4.719377 0.916725 0.129823
  H -4.983301 1.025981 -1.604441
  O 1.933352 0.046427 -0.026579
  H 2.562822 0.294044 0.643227
  H 2.409162 -0.413584 -0.716358
 19
 0.209246
  C -1.406115 1.967395 -1.165938
  C -1.671714 0.490074 -1.102528
  C -1.029805 -0.187941 0.062156
  C -3.201852 0.037877 -1.037665
  C -4.200689 1.120935 -0.812744
  O -3.461143 -1.118076 -1.151186
  H -0.335468 2.099263 -1.311075
  H -1.655784 2.472002 -0.245352
  H -1.894679 2.437335 -2.001578
  H -1.380425 0.018942 -2.045892
  H -1.318632 0.242853 1.028170
  H 0.067215 0.003122 -0.021156
  H -1.188757 -1.260525 0.070656
  H -3.797349 2.112875 -0.790950
  H -4.698859 0.898063 0.134422
  H -4.956261 1.032631 -1.597198
  O 1.720967 0.083149 -0.071263
  H 2.344108 0.350021 0.620511
  H 2.199491 -0.394271 -0.762628
 19
 1.209268
  C -1.381982 1.970237 -1.181325
  C -1.645393 0.477811 -1.116453
  C -1.020035 -0.184992 0.078239
  C -3.163401 0.038976 -1.056826
  C -4.157176 1.103484 -0.779645
  O -3.437416 -1.111524 -1.229171
  H -0.320044 2.115278 -1.330015
  H -1.647563 2.472923 -0.265488
  H -1.885720 2.432308 -2.014928
  H -1.332083 -0.001140 -2.056510
  H -1.285853 0.285744 1.024119
  H 0.137136 -0.011843 0.003199
  H -1.168112 -1.259040 0.112876
  H -3.747963 2.094872 -0.713432
  H -4.652900 0.840452 0.156089
  H -4.914344 1.057486 -1.561596
  O 1.566292 0.139959 -0.121405
  H 2.160331 0.376227 0.610828
  H 2.033223 -0.432974 -0.740935
 19
 4.119406
  C -1.355790 1.960920 -1.177614
  C -1.619860 0.465975 -1.108403
  C -1.023954 -0.173332 0.085137
  C -3.132974 0.037964 -1.066926
  C -4.140036 1.094177 -0.760756
  O -3.416446 -1.110783 -1.273675
  H -0.292733 2.114007 -1.319869
  H -1.636937 2.464163 -0.267839
  H -1.859182 2.413412 -2.013513
  H -1.281635 -0.018822 -2.034453
  H -1.281632 0.317170 1.023095
  H 0.216255 -0.001236 0.031487
  H -1.154570 -1.239127 0.133697
  H -3.733237 2.080621 -0.664037
  H -4.646049 0.804613 0.168763
  H -4.898571 1.073984 -1.551363
  O 1.459346 0.179651 -0.160514
  H 2.026164 0.395754 0.578602
  H 1.917834 -0.467069 -0.754971
 19
 6.040899
  C -1.352267 1.954249 -1.192349
  C -1.624629 0.455039 -1.120296
  C -1.050691 -0.180323 0.085661
  C -3.123765 0.041790 -1.079626
  C -4.127772 1.090670 -0.734635
  O -3.419287 -1.104769 -1.310517
  H -0.282496 2.109557 -1.337403
  H -1.640548 2.464244 -0.275507
  H -1.864715 2.408864 -2.035447
  H -1.274893 -0.032131 -2.037335
  H -1.288032 0.323722 1.017754
  H 0.323465 -0.008690 0.024679
  H -1.163645 -1.252254 0.141051
  H -3.712479 2.077145 -0.616741
  H -4.630453 0.782530 0.192834
  H -4.893188 1.096575 -1.520774
  O 1.433704 0.201091 -0.167341
  H 1.978558 0.410095 0.618328
  H 1.872761 -0.464911 -0.716827
 19
 7.054926
  C -1.360294 1.940115 -1.209232
  C -1.635817 0.456408 -1.136064
  C -1.093928 -0.174884 0.083684
  C -3.130325 0.052013 -1.096791
  C -4.119969 1.084423 -0.703067
  O -3.443141 -1.089008 -1.359715
  H -0.299812 2.092460 -1.352372
  H -1.650557 2.449869 -0.297780
  H -1.873509 2.391774 -2.052945
  H -1.268114 -0.035932 -2.044384
  H -1.316914 0.342744 1.009342
  H 0.437300 0.016768 0.028627
  H -1.188619 -1.263494 0.145075
  H -3.693966 2.070493 -0.555178
  H -4.608718 0.752820 0.204465
  H -4.881524 1.121511 -1.469709
  O 1.457433 0.216397 -0.149951
  H 1.965495 0.412695 0.655578
  H 1.888453 -0.488458 -0.675323
 19
 8.317864
  C -1.353664 1.942931 -1.235617
  C -1.649868 0.452824 -1.157875
  C -1.146754 -0.179860 0.079725
  C -3.147490 0.053775 -1.112617
  C -4.139586 1.076535 -0.663956
  O -3.471260 -1.078054 -1.404532
  H -0.284725 2.084879 -1.379984
  H -1.640711 2.462614 -0.323317
  H -1.864683 2.397372 -2.083458
  H -1.268267 -0.048823 -2.057628
  H -1.355005 0.347341 0.995959
  H 0.556859 0.026930 0.039440
  H -1.225406 -1.251722 0.142898
  H -3.711779 2.057138 -0.488528
  H -4.623665 0.710418 0.248885
  H -4.920496 1.141457 -1.429872
  O 1.517577 0.215043 -0.120405
  H 2.007256 0.408295 0.708609
  H 1.944840 -0.505005 -0.622490
 19
 10.935022
  C -1.368462 1.928868 -1.251118
  C -1.684437 0.445209 -1.177376
  C -1.225096 -0.188368 0.075597
  C -3.174483 0.061246 -1.130501
  C -4.145479 1.077145 -0.635240
  O -3.517610 -1.059909 -1.451429
  H -0.302802 2.058316 -1.392399
  H -1.653601 2.449168 -0.341138
  H -1.871605 2.389298 -2.095864
  H -1.296335 -0.063162 -2.058682
  H -1.418671 0.351252 0.989545
  H 0.707833 0.040162 0.061002
  H -1.290002 -1.264951 0.142008
  H -3.700759 2.044482 -0.435898
  H -4.622398 0.692726 0.266414
  H -4.927344 1.177121 -1.384799
  O 1.620808 0.223151 -0.086064
  H 2.093569 0.418663 0.749651
  H 2.057189 -0.504798 -0.573708
 19
 11.750879
  C -1.395329 1.920318 -1.298045
  C -1.742226 0.445170 -1.225727
  C -1.382350 -0.209269 0.055949
  C -3.240040 0.077947 -1.155267
  C -4.197264 1.081842 -0.580929
  O -3.612032 -1.025487 -1.522530
  H -0.321942 2.029127 -1.441629
  H -1.670463 2.447834 -0.389524
  H -1.894921 2.388705 -2.145545
  H -1.336492 -0.084607 -2.098437
  H -1.559688 0.342203 0.965675
  H 0.979528 0.024689 0.146076
  H -1.446653 -1.281042 0.122124
  H -3.737963 2.034287 -0.344800
  H -4.658915 0.658780 0.312941
  H -5.000025 1.229749 -1.310352
  O 1.887385 0.228758 -0.010293
  H 2.355555 0.425504 0.833098
  H 2.341782 -0.505752 -0.479292
 19
 14.840626
  C -1.426736 1.914375 -1.278117
  C -1.784025 0.444003 -1.220279
  C -1.451881 -0.219596 0.079482
  C -3.281379 0.093044 -1.175695
  C -4.234742 1.093136 -0.591686
  O -3.654755 -1.013032 -1.524493
  H -0.351196 2.018891 -1.404722
  H -1.714401 2.429399 -0.372609
  H -1.908615 2.392988 -2.128601
  H -1.371788 -0.098090 -2.090615
  H -1.606586 0.342053 0.982793
  H 1.201025 -0.010720 0.190761
  H -1.521769 -1.286597 0.149448
  H -3.778550 2.045348 -0.362715
  H -4.686370 0.672978 0.303167
  H -5.038560 1.234758 -1.310694
  O 2.071788 0.198518 0.016284
  H 2.529850 0.429264 0.847603
  H 2.517900 -0.520747 -0.463651
 19
 12.116441
  C -1.473863 1.875822 -1.292390
  C -1.909594 0.418106 -1.221642
  C -1.652279 -0.251035 0.069539
  C -3.407088 0.115277 -1.197298
  C -4.325636 1.128834 -0.576670
  O -3.818935 -0.962379 -1.610709
  H -0.394870 1.918409 -1.421868
  H -1.730791 2.422382 -0.390598
  H -1.936497 2.367123 -2.143855
  H -1.472702 -0.136203 -2.052810
  H -1.795492 0.305128 0.974284
  H 1.625644 -0.154156 0.369036
  H -1.719296 -1.326917 0.125998
  H -3.825055 2.042716 -0.291120
  H -4.811645 0.683256 0.289661
  H -5.113379 1.352683 -1.299158
  O 2.480524 0.197945 0.104917
  H 2.983252 0.531728 0.881357
  H 2.982673 -0.442623 -0.444793
 19
 12.666050
  C -1.480836 1.839426 -1.320820
  C -1.940807 0.397123 -1.249655
  C -1.702029 -0.280524 0.052887
  C -3.449996 0.131934 -1.193242
  C -4.326620 1.146784 -0.520211
  O -3.907172 -0.904392 -1.654069
  H -0.405147 1.863632 -1.458454
  H -1.722384 2.381180 -0.413329
  H -1.942062 2.345252 -2.168821
  H -1.538354 -0.178206 -2.092185
  H -1.864202 0.274603 0.955492
  H 1.840060 -0.163026 0.453702
  H -1.751420 -1.352652 0.105707
  H -3.792472 2.024011 -0.195444
  H -4.827422 0.679950 0.326873
  H -5.104252 1.432105 -1.226417
  O 2.642837 0.210406 0.170814
  H 3.134636 0.561662 0.936290
  H 3.162939 -0.427312 -0.350374
 19
 13.463778
  C -1.485856 1.807726 -1.310303
  C -1.996980 0.379939 -1.248788
  C -1.790132 -0.319374 0.052894
  C -3.498798 0.140096 -1.179421
  C -4.357511 1.167612 -0.498516
  O -3.975934 -0.875113 -1.679006
  H -0.409828 1.791504 -1.416194
  H -1.734936 2.367298 -0.412300
  H -1.905936 2.323093 -2.173769
  H -1.592025 -0.216205 -2.071053
  H -1.979126 0.232003 0.956596
  H 2.109527 -0.152891 0.523456
  H -1.825933 -1.392070 0.087630
  H -3.803477 2.032480 -0.162411
  H -4.871062 0.701783 0.343335
  H -5.127567 1.478646 -1.202575
  O 2.895853 0.216681 0.225369
  H 3.412551 0.556303 0.991933
  H 3.416043 -0.419286 -0.315361
