15

C -3.504823 0.984494 -0.132575
C -2.062787 0.58659 -0.028898
C -1.649726 -0.476197 0.642633
C -0.236896 -0.947923 0.804126
C 0.810365 -0.079796 0.109291
H 1.2349298099953305 -0.24027603309616274 0.178850084168469
H -4.105819 0.16366 -0.519816
H -3.626922 1.848886 -0.781175
H -3.899271 1.237987 0.850621
H -1.359409 1.223918 -0.53704
H -2.385201 -1.096837 1.14263
H -0.010978 -0.999987 1.875168
H -0.173034 -1.971192 0.414701
H 0.604597 -0.058308 -0.964308
H 0.747449 0.942498 0.492041
