 31
 0.000000
  C 0.966664 0.141632 0.405067
  C 2.439968 0.141481 0.403643
  C 3.229332 0.607889 1.563462
  C 2.460668 1.099264 2.786545
  C 3.420466 1.541644 3.886699
  C 3.048362 -0.325207 -0.757998
  C 4.430026 -0.414202 -0.980298
  C 5.095386 -0.861673 -2.095936
  C 4.615792 -1.380792 -3.390544
  C 3.130195 -1.505121 -3.701822
  C 2.924672 -2.068410 -5.106602
  H 6.176301 -0.852321 -2.072590
  H 0.531689 0.511134 1.324599
  H 0.596864 -0.870507 0.234964
  H 0.596236 0.754225 -0.418121
  H 3.887183 1.416732 1.225515
  H 3.887641 -0.209515 1.879164
  H 1.823822 0.303802 3.177944
  H 1.823428 1.944083 2.518738
  H 4.056395 0.718462 4.204680
  H 2.863964 1.889767 4.753328
  H 4.055964 2.356211 3.546456
  H 2.373639 -0.638064 -1.536256
  H 5.055850 -0.084746 -0.159747
  H 5.080032 -2.367874 -3.513837
  H 5.080638 -0.752814 -4.161688
  H 2.650667 -0.526440 -3.653281
  H 2.650071 -2.178784 -2.990640
  H 3.369285 -1.419300 -5.857488
  H 1.862839 -2.154983 -5.323437
  H 3.368738 -3.056746 -5.200826
 31
 -0.312112
  C 0.958838 -0.007189 0.484679
  C 2.428983 0.042799 0.437341
  C 3.215857 0.626741 1.540885
  C 2.454378 1.134216 2.761609
  C 3.423201 1.668210 3.812456
  C 3.035498 -0.477409 -0.702532
  C 4.416254 -0.622546 -0.901037
  C 5.074402 -1.025442 -2.036253
  C 4.612593 -1.414973 -3.373870
  C 3.133083 -1.441655 -3.729914
  C 2.938177 -1.873438 -5.181109
  H 6.154088 -1.059885 -1.957614
  H 0.544042 0.689420 1.200123
  H 0.645004 -1.011122 0.776234
  H 0.527449 0.183867 -0.494928
  H 3.814320 1.449392 1.135714
  H 3.943089 -0.120360 1.875601
  H 1.865559 0.328542 3.199877
  H 1.774058 1.937866 2.477871
  H 4.104725 0.890142 4.145762
  H 2.879177 2.030219 4.680039
  H 4.010774 2.492682 3.417596
  H 2.348202 -0.786335 -1.469868
  H 5.048740 -0.391441 -0.054836
  H 5.043727 -2.405045 -3.573427
  H 5.136900 -0.760057 -4.082846
  H 2.700616 -0.449130 -3.602903
  H 2.607107 -2.148614 -3.088599
  H 3.432677 -1.186557 -5.862936
  H 1.881530 -1.891139 -5.431924
  H 3.339849 -2.869023 -5.349654
 31
 0.255625
  C 0.958613 -0.243529 0.594990
  C 2.421597 -0.150730 0.479212
  C 3.211640 0.627376 1.454143
  C 2.461578 1.208855 2.647034
  C 3.424216 1.913499 3.597992
  C 3.023075 -0.791291 -0.597949
  C 4.400391 -0.989076 -0.778588
  C 5.071936 -1.287418 -1.936057
  C 4.623199 -1.433570 -3.325261
  C 3.150894 -1.315897 -3.691652
  C 2.959401 -1.469999 -5.198089
  H 6.144769 -1.401410 -1.834167
  H 0.524140 0.675300 0.971038
  H 0.709899 -1.028577 1.313400
  H 0.486380 -0.502297 -0.348890
  H 3.715025 1.441409 0.919780
  H 4.024781 -0.009161 1.823453
  H 1.944247 0.414271 3.186445
  H 1.715911 1.932018 2.312044
  H 4.170325 1.221495 3.982050
  H 2.883773 2.327584 4.445412
  H 3.939432 2.729839 3.096949
  H 2.312902 -1.147677 -1.324774
  H 5.013967 -0.892796 0.108552
  H 5.004678 -2.401792 -3.678363
  H 5.198209 -0.705452 -3.915080
  H 2.769064 -0.340196 -3.386743
  H 2.577688 -2.096607 -3.190065
  H 3.502781 -0.700155 -5.741523
  H 1.907356 -1.384751 -5.457945
  H 3.312067 -2.440912 -5.538811
 31
 3.260176
  C 0.949172 -0.630259 0.755622
  C 2.397028 -0.483521 0.529206
  C 3.177506 0.544520 1.245734
  C 2.479385 1.252314 2.401595
  C 3.436708 2.206871 3.107709
  C 2.987400 -1.250158 -0.456170
  C 4.365952 -1.494925 -0.630985
  C 5.071138 -1.596045 -1.796038
  C 4.648622 -1.379318 -3.187113
  C 3.182640 -1.121335 -3.498148
  C 2.983981 -0.860524 -4.988597
  H 6.130496 -1.798138 -1.698279
  H 0.479907 0.343873 0.848125
  H 0.776316 -1.176328 1.684115
  H 0.458709 -1.169112 -0.050599
  H 3.506285 1.296431 0.519705
  H 4.106376 0.080081 1.601013
  H 2.113290 0.517509 3.119521
  H 1.623364 1.824721 2.039875
  H 4.289552 1.671333 3.518094
  H 2.931341 2.711603 3.927134
  H 3.806879 2.965885 2.422401
  H 2.252949 -1.678108 -1.123126
  H 4.933097 -1.608955 0.286910
  H 4.997816 -2.241775 -3.769085
  H 5.250484 -0.544120 -3.571017
  H 2.835215 -0.252309 -2.934998
  H 2.584122 -1.988070 -3.215703
  H 3.549239 0.011121 -5.311252
  H 1.934291 -0.680842 -5.207347
  H 3.309580 -1.713812 -5.579477
 31
 12.064296
  C 1.092814 -0.836103 0.749188
  C 2.539075 -0.576154 0.591324
  C 3.215261 0.514560 1.310094
  C 2.403001 1.260927 2.365181
  C 3.278979 2.280248 3.085260
  C 3.172763 -1.293907 -0.417121
  C 4.521866 -1.557302 -0.692426
  C 5.151790 -1.571574 -1.896177
  C 4.642655 -1.282766 -3.245573
  C 3.166665 -0.983482 -3.431315
  C 2.847816 -0.805358 -4.911866
  H 6.215061 -1.787220 -1.875678
  H 0.576820 0.093948 0.895826
  H 0.914937 -1.491445 1.607385
  H 0.624155 -1.286269 -0.122073
  H 3.565753 1.234049 0.568215
  H 4.134858 0.112480 1.759328
  H 2.022799 0.550821 3.098370
  H 1.554547 1.785003 1.914417
  H 4.118622 1.793742 3.570995
  H 2.706962 2.800459 3.849486
  H 3.672790 3.018210 2.386715
  H 2.302594 -1.601552 -1.001089
  H 5.131150 -1.781498 0.179958
  H 4.878632 -2.180432 -3.831426
  H 5.253867 -0.486458 -3.683182
  H 2.913470 -0.061821 -2.903630
  H 2.576109 -1.817930 -3.051405
  H 3.427778 0.009788 -5.336132
  H 1.793412 -0.582708 -5.056365
  H 3.088144 -1.704421 -5.470532
 31
 27.404299
  C 1.208423 -1.039262 0.778403
  C 2.621939 -0.630466 0.522493
  C 3.200223 0.566632 1.163059
  C 2.341686 1.219623 2.246233
  C 3.149452 2.309964 2.954206
  C 3.331491 -1.423220 -0.340255
  C 4.666677 -1.651945 -0.695870
  C 5.234020 -1.593661 -1.926513
  C 4.650994 -1.207212 -3.238216
  C 3.160276 -0.890575 -3.308185
  C 2.722360 -0.576229 -4.738453
  H 6.289150 -1.818687 -1.961592
  H 0.586011 -0.165546 0.709868
  H 1.121448 -1.560222 1.726837
  H 0.798138 -1.716569 0.032739
  H 3.510243 1.294024 0.413309
  H 4.140186 0.219693 1.624201
  H 2.027948 0.483527 2.981191
  H 1.453904 1.668088 1.798359
  H 4.033933 1.877096 3.422305
  H 2.554195 2.788811 3.727389
  H 3.469696 3.078996 2.254932
  H 2.392179 -1.787106 -0.764774
  H 5.301014 -1.930193 0.136260
  H 4.848895 -2.056855 -3.914428
  H 5.248945 -0.384393 -3.645669
  H 2.921562 -0.041194 -2.663244
  H 2.587130 -1.745684 -2.953710
  H 3.275377 0.275879 -5.135068
  H 1.662616 -0.347253 -4.779268
  H 2.927301 -1.419806 -5.394518
 31
 58.038636
  C 1.392608 -1.253236 0.707397
  C 2.820579 -0.745088 0.525087
  C 3.248145 0.561516 1.113662
  C 2.294274 1.169014 2.135887
  C 2.904900 2.433311 2.734811
  C 3.584677 -1.472658 -0.293984
  C 4.824735 -1.810480 -0.747851
  C 5.285544 -1.765472 -2.029558
  C 4.607572 -1.275442 -3.233622
  C 3.165648 -0.802381 -3.092231
  C 2.647749 -0.265805 -4.426061
  H 6.296790 -2.106478 -2.195696
  H 0.761021 -0.390991 0.708048
  H 1.328204 -1.797111 1.648504
  H 0.927262 -1.924455 -0.038254
  H 3.375162 1.282478 0.292312
  H 4.241218 0.437322 1.548616
  H 2.114727 0.459103 2.945145
  H 1.338475 1.428287 1.681868
  H 3.848642 2.208959 3.230802
  H 2.233232 2.867244 3.469522
  H 3.099644 3.173889 1.963956
  H 2.372711 -1.774663 -0.530213
  H 5.484805 -2.237395 -0.000903
  H 4.674023 -2.037246 -4.004072
  H 5.220167 -0.437136 -3.616451
  H 3.123309 -0.003147 -2.350204
  H 2.544446 -1.639949 -2.794208
  H 3.249665 0.575190 -4.760893
  H 1.617077 0.064422 -4.338717
  H 2.696983 -1.035570 -5.199937
 31
 73.461180
  C 1.448300 -1.277182 0.659069
  C 2.909166 -0.734805 0.504675
  C 3.288192 0.587153 1.139391
  C 2.263939 1.168811 2.111107
  C 2.823499 2.422530 2.777326
  C 3.711344 -1.417861 -0.280715
  C 4.922018 -1.786248 -0.786395
  C 5.343687 -1.758873 -2.090301
  C 4.621635 -1.260073 -3.288515
  C 3.196390 -0.760158 -3.081512
  C 2.586807 -0.274800 -4.391814
  H 6.342509 -2.119360 -2.292770
  H 0.786411 -0.413478 0.723380
  H 1.406439 -1.854617 1.586432
  H 0.895312 -1.936784 -0.083334
  H 3.493102 1.318637 0.353679
  H 4.229221 0.429712 1.672182
  H 2.022944 0.441777 2.887516
  H 1.348327 1.449563 1.588837
  H 3.728976 2.195908 3.337004
  H 2.096295 2.843242 3.468271
  H 3.064358 3.181630 2.035979
  H 2.053080 -1.665948 -0.420614
  H 5.599440 -2.242959 -0.068676
  H 4.617890 -2.061909 -4.037526
  H 5.227667 -0.458603 -3.730708
  H 3.200490 0.061744 -2.365720
  H 2.588358 -1.580310 -2.697725
  H 3.167567 0.545766 -4.807443
  H 1.570411 0.076443 -4.236767
  H 2.561712 -1.075295 -5.127579
 31
 70.949574
  C 1.399100 -1.297235 0.699161
  C 2.886862 -0.769670 0.472127
  C 3.261146 0.559801 1.105127
  C 2.260550 1.160155 2.090684
  C 2.846543 2.416569 2.728588
  C 3.710419 -1.415729 -0.303890
  C 4.931029 -1.751803 -0.794296
  C 5.375178 -1.702681 -2.092035
  C 4.654665 -1.211065 -3.295920
  C 3.218930 -0.743254 -3.086894
  C 2.594156 -0.269809 -4.395091
  H 6.384236 -2.039201 -2.283328
  H 0.788973 -0.408343 0.880555
  H 1.482468 -1.905931 1.603622
  H 0.663269 -1.968994 0.115758
  H 3.458980 1.287123 0.313228
  H 4.207863 0.403609 1.628666
  H 2.031742 0.446964 2.883338
  H 1.336700 1.447480 1.586139
  H 3.762358 2.188698 3.270316
  H 2.139312 2.852706 3.430460
  H 3.077953 3.164542 1.972794
  H 1.689045 -1.583382 -0.386132
  H 5.607638 -2.200959 -0.071139
  H 4.668361 -2.010083 -4.047995
  H 5.245046 -0.394683 -3.731294
  H 3.208777 0.076149 -2.368065
  H 2.635809 -1.579823 -2.700088
  H 3.155987 0.564095 -4.810785
  H 1.569719 0.058273 -4.238814
  H 2.586643 -1.070453 -5.131993
 31
 69.809005
  C 1.400424 -1.267277 0.671424
  C 2.901187 -0.719218 0.464693
  C 3.249318 0.594260 1.140167
  C 2.230165 1.177660 2.120852
  C 2.800472 2.434887 2.775678
  C 3.733275 -1.330657 -0.329425
  C 4.928851 -1.747158 -0.823442
  C 5.360233 -1.745743 -2.124164
  C 4.638496 -1.267051 -3.325399
  C 3.232401 -0.723184 -3.100117
  C 2.592659 -0.286585 -4.411657
  H 6.355390 -2.119293 -2.319024
  H 0.784781 -0.438920 1.046440
  H 1.591986 -1.992846 1.462917
  H 0.703108 -1.989167 0.112376
  H 3.464234 1.340274 0.372795
  H 4.187816 0.426703 1.682447
  H 1.998749 0.454855 2.910086
  H 1.309237 1.462346 1.609904
  H 3.711744 2.210771 3.322955
  H 2.083388 2.858963 3.474526
  H 3.032825 3.192581 2.027949
  H 1.510255 -1.148338 -0.450653
  H 5.587391 -2.217147 -0.097055
  H 4.593580 -2.092643 -4.040884
  H 5.254391 -0.499690 -3.807495
  H 3.282831 0.131148 -2.422424
  H 2.625504 -1.511279 -2.653671
  H 3.181688 0.498608 -4.884296
  H 1.588739 0.098771 -4.246329
  H 2.527690 -1.123374 -5.107542
 31
 60.286410
  C 1.465067 -1.373277 0.664211
  C 2.851635 -0.762029 0.421049
  C 3.096585 0.666911 0.892034
  C 2.294019 1.108425 2.117756
  C 2.747309 2.490331 2.574671
  C 3.771904 -1.403823 -0.231001
  C 4.869944 -1.958753 -0.774307
  C 5.282536 -1.963978 -2.090934
  C 4.646155 -1.308693 -3.265640
  C 3.305945 -0.620668 -3.021800
  C 2.766489 0.009714 -4.305259
  H 6.199102 -2.487278 -2.315552
  H 0.826461 -0.628661 1.205045
  H 1.435601 -1.908353 1.653608
  H 1.469703 -2.424411 0.270579
  H 2.889936 1.353091 0.063679
  H 4.160427 0.771081 1.119983
  H 2.447863 0.411916 2.942388
  H 1.230077 1.182854 1.890079
  H 3.796834 2.484361 2.849297
  H 2.176181 2.814860 3.438394
  H 2.611517 3.224469 1.784393
  H 0.795592 -1.165877 -0.211605
  H 5.500872 -2.509396 -0.078740
  H 4.526264 -2.063442 -4.052855
  H 5.357931 -0.576801 -3.671799
  H 3.433834 0.154107 -2.265431
  H 2.590829 -1.360448 -2.657460
  H 3.461528 0.751998 -4.691374
  H 1.814307 0.500933 -4.125284
  H 2.620366 -0.746905 -5.076492
