 20
 0.000000
  H 1.495418 0.138755 0.398903
  C 2.576298 0.134164 0.387089
  C 3.273107 0.616552 1.584968
  C 2.345233 1.067039 2.704704
  H 2.919913 1.411085 3.559393
  C 3.186927 -0.326898 -0.759461
  C 4.568148 -0.404086 -0.952000
  C 5.199767 -0.866870 -2.108257
  C 4.527685 -1.354159 -3.326324
  H 3.447414 -1.337877 -3.286802
  O 6.505960 -0.893797 -2.176130
  H 3.935374 1.445518 1.306669
  H 3.935798 -0.173707 1.958477
  H 1.705846 0.249651 3.029397
  H 1.705572 1.881308 2.372739
  H 2.542152 -0.649778 -1.563215
  H 5.214106 -0.081092 -0.145545
  H 4.871823 -2.369527 -3.529325
  H 4.872504 -0.759490 -4.173734
  H 6.951031 -0.570588 -1.368627
 20
 1.172659
  H 1.523179 0.483005 0.292561
  C 2.596333 0.350876 0.306246
  C 3.272961 0.606859 1.583761
  C 2.320043 0.924675 2.727096
  H 2.872979 1.094697 3.646765
  C 3.203365 -0.054745 -0.860495
  C 4.579928 -0.242242 -1.010325
  C 5.209383 -0.828468 -2.110498
  C 4.514412 -1.539357 -3.199428
  H 3.438532 -1.538469 -3.085557
  O 6.513259 -0.862389 -2.188396
  H 3.969246 1.444902 1.449639
  H 3.903311 -0.247793 1.852653
  H 1.629524 0.101675 2.895195
  H 1.737543 1.817377 2.512108
  H 2.568444 -0.221773 -1.718135
  H 5.240701 0.087719 -0.220817
  H 4.873945 -2.567762 -3.243329
  H 4.792819 -1.089758 -4.152899
  H 7.001351 -0.226599 -1.631722
 20
 5.400014
  H 1.548873 0.600293 0.250312
  C 2.610231 0.402815 0.289868
  C 3.265033 0.604232 1.586969
  C 2.294387 0.899866 2.723787
  H 2.833975 1.049180 3.655184
  C 3.221732 -0.019271 -0.869118
  C 4.592983 -0.253335 -0.999228
  C 5.215296 -0.836611 -2.103722
  C 4.515003 -1.567140 -3.172820
  H 3.440643 -1.583777 -3.047644
  O 6.531830 -0.917951 -2.152492
  H 3.975087 1.435208 1.495203
  H 3.882438 -0.269015 1.838518
  H 1.600055 0.073602 2.863918
  H 1.714103 1.800490 2.519172
  H 2.594392 -0.159086 -1.737475
  H 5.240678 -0.023797 -0.161511
  H 4.892304 -2.588867 -3.213254
  H 4.780438 -1.125508 -4.132585
  H 7.005808 -0.094574 -1.943747
 20
 10.745718
  H 1.524413 0.577127 0.271254
  C 2.591264 0.402575 0.307604
  C 3.244834 0.602819 1.602795
  C 2.279554 0.878263 2.745139
  H 2.821983 1.016109 3.676238
  C 3.206687 -0.005955 -0.848812
  C 4.582054 -0.231879 -0.974370
  C 5.214697 -0.843006 -2.047308
  C 4.530522 -1.552824 -3.141723
  H 3.450177 -1.504763 -3.071777
  O 6.549055 -0.937698 -2.025883
  H 3.942876 1.446471 1.508686
  H 3.881908 -0.254719 1.845038
  H 1.589228 0.048324 2.875853
  H 1.696383 1.776173 2.556163
  H 2.585776 -0.139237 -1.722964
  H 5.251306 0.086587 -0.180906
  H 4.847653 -2.598658 -3.139729
  H 4.869446 -1.158141 -4.099782
  H 7.056724 -0.155231 -2.249081
 20
 10.398077
  H 1.508251 0.541049 0.286708
  C 2.579404 0.396999 0.321907
  C 3.226537 0.603994 1.615977
  C 2.255775 0.834186 2.763694
  H 2.796257 0.998543 3.691508
  C 3.204078 -0.005676 -0.828943
  C 4.587854 -0.213560 -0.947553
  C 5.232420 -0.848309 -2.006256
  C 4.570136 -1.532611 -3.125232
  H 3.492290 -1.454078 -3.086174
  O 6.553230 -0.921860 -1.914856
  H 3.892257 1.473808 1.524405
  H 3.898114 -0.229052 1.848911
  H 1.607675 -0.028645 2.899045
  H 1.627841 1.702335 2.577514
  H 2.589510 -0.143632 -1.707315
  H 5.258395 0.201142 -0.207059
  H 4.857414 -2.585823 -3.098591
  H 4.933012 -1.159577 -4.082322
  H 7.059051 -0.467434 -2.599248
 20
 14.131620
  H 1.506592 0.774234 0.255989
  C 2.565699 0.552732 0.267712
  C 3.224565 0.520357 1.579165
  C 2.266888 0.630241 2.755528
  H 2.813551 0.609359 3.694119
  C 3.190185 0.320852 -0.932300
  C 4.558211 0.052589 -1.072975
  C 5.197764 -0.731577 -2.022255
  C 4.575176 -1.723021 -2.909675
  H 3.495761 -1.723797 -2.805337
  O 6.523479 -0.654117 -1.924928
  H 3.939624 1.354484 1.610402
  H 3.841719 -0.376903 1.678891
  H 1.559691 -0.196053 2.756673
  H 1.701788 1.558520 2.713417
  H 2.596223 0.354218 -1.836494
  H 5.342324 0.555469 -0.517571
  H 4.967501 -2.711140 -2.666146
  H 4.835787 -1.539689 -3.952915
  H 7.010940 -0.465548 -2.747306
 20
 26.050775
  H 1.502092 0.961552 0.294586
  C 2.558441 0.697819 0.247963
  C 3.261172 0.517290 1.529632
  C 2.325597 0.446891 2.731580
  H 2.896016 0.354042 3.652798
  C 3.121239 0.516226 -0.981323
  C 4.451784 0.169196 -1.185298
  C 5.109983 -0.701649 -2.027612
  C 4.607891 -1.860938 -2.756413
  H 3.534835 -1.918078 -2.689978
  O 6.431192 -0.471199 -1.949695
  H 3.930279 1.370183 1.653444
  H 3.898866 -0.367248 1.494669
  H 1.669779 -0.416840 2.658835
  H 1.709274 1.338123 2.802370
  H 2.517760 0.702438 -1.862972
  H 5.348459 0.683994 -0.798351
  H 5.048510 -2.771157 -2.343160
  H 4.897967 -1.814066 -3.805466
  H 6.908969 -0.282778 -2.760577
 20
 50.790553
  H 1.496004 1.130354 0.382783
  C 2.509607 0.771487 0.272958
  C 3.235009 0.422543 1.500040
  C 2.358929 0.381438 2.743925
  H 2.955308 0.142940 3.620285
  C 3.017992 0.652071 -0.989631
  C 4.286274 0.156169 -1.276083
  C 5.011849 -0.689741 -2.043725
  C 4.713320 -1.928129 -2.776183
  H 3.644344 -2.114872 -2.782515
  O 6.333405 -0.324044 -1.832914
  H 4.028033 1.166206 1.651696
  H 3.764269 -0.526350 1.371319
  H 1.585922 -0.377275 2.646009
  H 1.874551 1.340127 2.912925
  H 2.427415 1.012316 -1.823862
  H 5.422017 0.589178 -0.958048
  H 5.227045 -2.770467 -2.315482
  H 5.061145 -1.850134 -3.806049
  H 6.828169 -0.043280 -2.625220
 20
 63.779658
  H 1.452757 1.157250 0.422030
  C 2.450751 0.773806 0.274737
  C 3.219787 0.408443 1.481210
  C 2.375627 0.393903 2.749572
  H 2.985716 0.128549 3.608752
  C 2.909465 0.629898 -1.007834
  C 4.142126 0.115650 -1.344383
  C 4.911133 -0.687727 -2.045970
  C 4.734784 -1.968273 -2.755185
  H 3.684799 -2.237253 -2.783558
  O 6.256021 -0.209916 -1.812293
  H 4.040999 1.122132 1.610374
  H 3.691117 -0.568404 1.331150
  H 1.569351 -0.331481 2.669124
  H 1.936891 1.371582 2.936520
  H 2.300805 1.013015 -1.820643
  H 5.561955 0.566273 -1.077500
  H 5.294878 -2.755869 -2.252911
  H 5.104741 -1.889179 -3.776891
  H 6.745693 0.094764 -2.607519
 20
 52.061422
  H 1.446988 1.193366 0.473644
  C 2.430421 0.783454 0.292782
  C 3.230905 0.390275 1.467620
  C 2.426406 0.374250 2.751100
  H 3.061553 0.119408 3.593724
  C 2.839017 0.617890 -1.007943
  C 4.033187 0.097890 -1.401391
  C 4.857152 -0.668601 -2.037002
  C 4.811543 -2.006601 -2.651030
  H 3.799646 -2.379925 -2.646485
  O 6.244200 -0.072793 -1.892040
  H 4.059849 1.096919 1.581721
  H 3.686828 -0.589103 1.296734
  H 1.624847 -0.353733 2.695866
  H 1.989602 1.353011 2.944135
  H 2.206169 1.012128 -1.793321
  H 5.824687 0.646850 -1.320628
  H 5.445942 -2.689184 -2.102917
  H 5.165769 -1.958272 -3.673869
  H 6.674504 0.154094 -2.746427
 20
 47.278912
  H 1.385441 1.061918 0.499201
  C 2.379539 0.685364 0.302012
  C 3.224251 0.336563 1.472114
  C 2.463596 0.407498 2.793211
  H 3.103620 0.111170 3.620810
  C 2.770307 0.518854 -1.001872
  C 3.980991 0.052908 -1.411141
  C 4.866133 -0.618133 -2.066525
  C 4.851648 -1.948512 -2.706703
  H 3.852756 -2.362896 -2.685032
  O 6.251748 -0.065497 -1.967430
  H 4.084289 1.014524 1.517032
  H 3.633335 -0.671552 1.337583
  H 1.603566 -0.262710 2.777891
  H 2.098119 1.416050 2.976827
  H 2.102268 0.868003 -1.783921
  H 6.075731 0.574689 -1.229674
  H 5.529902 -2.621049 -2.186744
  H 5.172437 -1.864617 -3.740228
  H 6.525919 0.462405 -2.758046
 20
 40.328917
  H 1.492306 1.338711 0.551588
  C 2.411611 0.829303 0.310656
  C 3.186149 0.242062 1.429777
  C 2.406732 0.226334 2.738880
  H 3.001092 -0.220593 3.531426
  C 2.789842 0.741773 -1.013167
  C 3.902367 0.136489 -1.471429
  C 4.851497 -0.548161 -2.003446
  C 4.902922 -1.978261 -2.411874
  H 3.945722 -2.453302 -2.220392
  O 6.200123 0.069729 -2.202417
  H 4.108025 0.816844 1.574468
  H 3.495383 -0.774341 1.167566
  H 1.491125 -0.351461 2.634761
  H 2.139936 1.236007 3.042592
  H 2.156373 1.206548 -1.759186
  H 6.293592 0.891574 -1.668971
  H 5.675689 -2.493995 -1.843764
  H 5.128574 -2.070479 -3.472682
  H 6.376534 0.250197 -3.155022
