13

H 3.5870990544128905 -0.5978991812487865 -0.9857181628416194
C 4.656935 -0.606404 -1.002413
C 5.377138 -1.12183 -2.014278
C 6.815353 -1.131424 -2.033109
C 7.535242 -1.642704 -3.036844
C 9.025199 -1.661407 -3.073551
H 5.162048 -0.171679 -0.148977
H 4.871051 -1.556545 -2.867695
H 7.320824 -0.696664 -1.179603
H 7.036924 -2.079073 -3.893491
H 9.457233 -1.20794 -2.183332
H 9.385212 -1.115568 -3.946998
H 9.385212 -2.688855 -3.145593
