 20
 0.000000
  C -3.452562 2.901017 -0.255058
  C -2.625166 1.740468 -0.797663
  C -1.703353 2.217643 -1.920702
  C -1.819164 1.086791 0.303262
  O -1.759772 1.544804 1.427574
  C -1.081400 -0.177727 -0.048290
  H -4.065331 3.337140 -1.039617
  H -2.813654 3.681692 0.151102
  H -4.113027 2.566539 0.542595
  H -3.313117 0.982228 -1.188378
  H -0.965503 2.922141 -1.544506
  H -2.277130 2.709514 -2.699944
  H -1.169376 1.388097 -2.377750
  H -1.344377 -0.523410 -1.043777
  H -1.348452 -0.951296 0.665852
  H -0.014134 0.010284 -0.006550
  O 2.957093 0.177991 0.048233
  H 3.149538 1.137346 0.105046
  H 1.994827 0.009652 -0.005912
  H 3.364271 -0.313864 0.792131
 20
 0.965064
  C -3.415276 2.877400 -0.243025
  C -2.582105 1.729855 -0.788380
  C -1.670180 2.213956 -1.925709
  C -1.745326 1.093675 0.307757
  O -1.662587 1.557451 1.427557
  C -1.006304 -0.161837 -0.067733
  H -4.040525 3.302379 -1.027280
  H -2.769199 3.659843 0.153626
  H -4.058856 2.531624 0.567083
  H -3.250031 0.953602 -1.176234
  H -0.964474 2.949566 -1.550629
  H -2.275439 2.690689 -2.691198
  H -1.130136 1.392226 -2.385281
  H -1.272562 -0.513776 -1.053843
  H -1.237160 -0.923586 0.670388
  H 0.070030 0.026335 -0.020646
  O 2.745677 0.181972 0.044040
  H 2.955710 1.141330 0.064764
  H 1.771453 0.031254 -0.006759
  H 3.139494 -0.289648 0.811567
 20
 3.267436
  C -3.412845 2.860609 -0.278251
  C -2.535629 1.728994 -0.802517
  C -1.618405 2.226829 -1.933334
  C -1.697414 1.123586 0.315327
  O -1.628709 1.608534 1.423986
  C -0.944918 -0.139314 -0.029331
  H -4.037311 3.261311 -1.078254
  H -2.793767 3.667683 0.118813
  H -4.056895 2.507277 0.526855
  H -3.175556 0.935039 -1.194357
  H -0.939749 2.982420 -1.555934
  H -2.231940 2.693863 -2.713027
  H -1.054116 1.420576 -2.382251
  H -1.176139 -0.503597 -1.028600
  H -1.202822 -0.900264 0.710476
  H 0.135512 0.034440 0.059083
  O 2.568224 0.138210 0.065250
  H 2.772313 1.089427 0.021897
  H 1.578993 0.006899 0.062229
  H 3.039378 -0.302035 0.805045
 20
 6.721567
  C -3.392568 2.841883 -0.264048
  C -2.506262 1.718108 -0.795878
  C -1.609247 2.224342 -1.936522
  C -1.652726 1.134028 0.306523
  O -1.573480 1.630389 1.414074
  C -0.895710 -0.122721 -0.039913
  H -4.031199 3.231953 -1.051673
  H -2.784762 3.645056 0.122231
  H -4.020833 2.480533 0.544600
  H -3.143573 0.910944 -1.183126
  H -0.931569 2.994029 -1.567175
  H -2.231628 2.667670 -2.710625
  H -1.037021 1.419084 -2.384092
  H -1.137120 -0.480353 -1.032098
  H -1.149814 -0.882251 0.706882
  H 0.198886 0.056888 0.050527
  O 2.450772 0.151269 0.054776
  H 2.684340 1.102036 0.040920
  H 1.436823 0.030593 0.050915
  H 2.897716 -0.326329 0.787940
 20
 14.025780
  C -3.393406 2.841235 -0.284130
  C -2.509057 1.712873 -0.803699
  C -1.609816 2.217466 -1.946014
  C -1.648797 1.140962 0.301043
  O -1.561004 1.651495 1.400383
  C -0.887680 -0.111958 -0.036840
  H -4.034085 3.223055 -1.074556
  H -2.766537 3.652104 0.069955
  H -4.021748 2.487197 0.528634
  H -3.138812 0.899302 -1.182940
  H -0.949445 2.997883 -1.584803
  H -2.270179 2.573826 -2.735987
  H -1.020192 1.415267 -2.379206
  H -1.115403 -0.470637 -1.031831
  H -1.129413 -0.869504 0.707065
  H 0.261833 0.078928 0.054582
  O 2.451233 0.167512 0.054894
  H 2.708995 1.093633 0.207289
  H 1.359753 0.049987 0.050727
  H 2.814603 -0.345125 0.806029
 20
 20.903437
  C -3.383976 2.829468 -0.274958
  C -2.495720 1.709459 -0.801183
  C -1.625105 2.210309 -1.956730
  C -1.606715 1.156850 0.298255
  O -1.495533 1.679883 1.381386
  C -0.844861 -0.118219 -0.042393
  H -4.044829 3.195965 -1.061434
  H -2.780703 3.652534 0.080903
  H -3.994826 2.476991 0.556958
  H -3.127215 0.887802 -1.165542
  H -0.977613 3.016549 -1.615493
  H -2.273073 2.605276 -2.748041
  H -1.026028 1.419343 -2.381902
  H -1.056992 -0.485121 -1.045722
  H -1.088728 -0.887714 0.709593
  H 0.302008 0.073286 0.059545
  O 2.380470 0.169561 0.080378
  H 2.643183 1.110666 0.229132
  H 1.247638 0.067410 0.074916
  H 2.752231 -0.398662 0.760841
 20
 29.499861
  C -3.367986 2.826819 -0.265059
  C -2.487872 1.706791 -0.777944
  C -1.642053 2.180062 -1.973969
  C -1.607579 1.136871 0.292887
  O -1.440395 1.681331 1.367613
  C -0.842277 -0.106424 -0.071717
  H -4.043302 3.180334 -1.027492
  H -2.753695 3.657991 0.083800
  H -3.961446 2.485692 0.594092
  H -3.133407 0.895033 -1.144435
  H -0.981474 2.987847 -1.649064
  H -2.300850 2.590925 -2.733139
  H -1.040928 1.385617 -2.398882
  H -1.072234 -0.459723 -1.066688
  H -1.127571 -0.883770 0.651478
  H 0.310079 0.066591 0.075681
  O 2.368338 0.211626 0.099316
  H 2.618398 1.129228 0.277465
  H 1.179635 0.050459 0.076291
  H 2.771354 -0.395317 0.743839
 20
 43.308067
  C -3.392783 2.830365 -0.261261
  C -2.515639 1.708917 -0.778866
  C -1.663393 2.184440 -1.973492
  C -1.633369 1.139545 0.290657
  O -1.467006 1.679581 1.365683
  C -0.885094 -0.114124 -0.074967
  H -4.071039 3.188964 -1.026404
  H -2.776511 3.659495 0.089763
  H -3.983664 2.489433 0.591082
  H -3.165649 0.894828 -1.148387
  H -0.999722 2.990533 -1.644812
  H -2.317662 2.597144 -2.733450
  H -1.066714 1.392617 -2.398450
  H -1.106700 -0.461742 -1.072421
  H -1.170124 -0.887868 0.643926
  H 0.362860 0.059878 0.084486
  O 2.469969 0.195057 0.105401
  H 2.725674 1.109225 0.286425
  H 1.156043 0.034466 0.083207
  H 2.866373 -0.412806 0.749526
 20
 60.285870
  C -3.416399 2.835687 -0.260066
  C -2.545533 1.712085 -0.781753
  C -1.686422 2.185461 -1.970347
  C -1.663535 1.140063 0.288453
  O -1.494713 1.675278 1.364453
  C -0.936762 -0.120151 -0.080717
  H -4.090031 3.199096 -1.022551
  H -2.796529 3.659875 0.093089
  H -4.012230 2.493791 0.592430
  H -3.196597 0.904516 -1.152511
  H -1.020620 2.984871 -1.637075
  H -2.335936 2.603135 -2.732819
  H -1.092019 1.389191 -2.397699
  H -1.146001 -0.460265 -1.084260
  H -1.218755 -0.896893 0.636653
  H 0.411313 0.053624 0.092195
  O 2.582847 0.182655 0.111801
  H 2.841924 1.091640 0.300200
  H 1.132530 0.021326 0.089434
  H 2.973006 -0.426913 0.753764
 20
 70.785596
  C -3.479589 2.841707 -0.261199
  C -2.615874 1.721338 -0.793673
  C -1.732497 2.203333 -1.968940
  C -1.713578 1.170143 0.279599
  O -1.513977 1.717965 1.338410
  C -1.077548 -0.124247 -0.094123
  H -4.158206 3.215118 -1.025509
  H -2.858683 3.659620 0.093562
  H -4.072901 2.498968 0.584039
  H -3.266304 0.913376 -1.163111
  H -1.067008 2.997706 -1.620587
  H -2.371266 2.624153 -2.736859
  H -1.140756 1.411444 -2.405679
  H -1.211625 -0.451375 -1.113141
  H -1.342305 -0.905046 0.627470
  H 0.329144 -0.004363 0.093614
  O 2.940749 0.143486 0.145247
  H 3.193970 1.049513 0.332417
  H 1.050279 -0.065110 0.097203
  H 3.325038 -0.439684 0.821693
 20
 76.802109
  C -3.590170 2.827024 -0.264479
  C -2.706428 1.735695 -0.822171
  C -1.837753 2.246932 -1.986042
  C -1.745263 1.239513 0.245478
  O -1.503647 1.842957 1.260272
  C -1.206934 -0.080598 -0.114506
  H -4.286045 3.175045 -1.016758
  H -2.984123 3.667073 0.089760
  H -4.167929 2.454854 0.587768
  H -3.330230 0.905724 -1.182655
  H -1.182195 3.044332 -1.629440
  H -2.486469 2.662655 -2.748577
  H -1.215414 1.474966 -2.420536
  H -1.279614 -0.403925 -1.140852
  H -1.491449 -0.837474 0.617695
  H 0.296934 -0.064720 0.111266
  O 3.382519 0.025811 0.228121
  H 3.661265 0.921416 0.422785
  H 1.029839 -0.182572 0.124658
  H 3.746199 -0.555724 0.908447
 20
 84.062115
  C -3.655371 2.831588 -0.272028
  C -2.765381 1.740311 -0.827028
  C -1.866778 2.241698 -1.964335
  C -1.814101 1.238772 0.266831
  O -1.582573 1.854550 1.270995
  C -1.307324 -0.074184 -0.111578
  H -4.335809 3.181966 -1.038503
  H -3.052084 3.665046 0.092921
  H -4.248175 2.463227 0.565966
  H -3.388820 0.918539 -1.202023
  H -1.211693 3.034403 -1.599430
  H -2.503014 2.663346 -2.738441
  H -1.250715 1.461782 -2.396336
  H -1.364723 -0.380807 -1.145958
  H -1.595577 -0.844087 0.607141
  H 0.303350 -0.102568 0.131000
  O 3.627493 -0.007871 0.236048
  H 3.914905 0.882854 0.444947
  H 1.003115 -0.232739 0.138425
  H 4.001798 -0.598271 0.898429
 20
 89.344435
  C -3.744415 2.826061 -0.270389
  C -2.824621 1.765036 -0.837222
  C -1.921735 2.253648 -1.965987
  C -1.866199 1.256027 0.280065
  O -1.643795 1.886663 1.271567
  C -1.426781 -0.047864 -0.116322
  H -4.422803 3.158982 -1.045681
  H -3.167819 3.669483 0.096702
  H -4.334966 2.440205 0.559175
  H -3.438622 0.934391 -1.208232
  H -1.268204 3.053256 -1.619171
  H -2.569081 2.661825 -2.742759
  H -1.320190 1.466809 -2.407910
  H -1.456315 -0.337048 -1.152274
  H -1.724950 -0.825144 0.589343
  H 0.343013 -0.149017 0.152581
  O 3.938172 -0.075748 0.270611
  H 4.233036 0.806773 0.509797
  H 1.026785 -0.303764 0.157009
  H 4.314435 -0.686352 0.909626
 20
 90.409472
  C -3.847595 2.784530 -0.253088
  C -2.917278 1.764482 -0.865728
  C -2.046619 2.285277 -1.999822
  C -1.886565 1.324455 0.255874
  O -1.668324 2.011852 1.200402
  C -1.536630 0.024171 -0.143438
  H -4.568773 3.086620 -1.006903
  H -3.292848 3.646893 0.102781
  H -4.404605 2.367567 0.590896
  H -3.514599 0.915311 -1.212293
  H -1.414298 3.110608 -1.668575
  H -2.724808 2.666143 -2.761050
  H -1.436269 1.520941 -2.468678
  H -1.535631 -0.265618 -1.181753
  H -1.878625 -0.742741 0.554772
  H 0.428946 -0.193578 0.175587
  O 4.325515 -0.217198 0.361332
  H 4.639053 0.651515 0.631260
  H 1.110456 -0.394534 0.189016
  H 4.685740 -0.843335 0.991024
