 23
 0.000000
  H 1.383975 0.137746 0.394054
  C 2.453972 0.138831 0.396445
  C 3.235887 0.609601 1.567949
  H 2.688339 0.952271 2.420984
  C 3.074760 -0.323868 -0.755623
  C 4.452396 -0.411652 -0.974602
  C 5.123831 -0.863395 -2.100714
  C 4.621920 -1.386396 -3.404454
  C 3.129954 -1.502980 -3.695876
  C 2.901042 -2.064737 -5.096300
  O 6.448567 -0.861790 -2.097024
  H 3.892013 1.422462 1.236076
  H 3.892206 -0.206765 1.890660
  H 2.419633 -0.642347 -1.548686
  H 5.073532 -0.080521 -0.149771
  H 5.075895 -2.376004 -3.531813
  H 5.076265 -0.759449 -4.180462
  H 2.655656 -0.522022 -3.641480
  H 2.655252 -2.174151 -2.978669
  H 3.338077 -1.417822 -5.854009
  H 1.834884 -2.144599 -5.296051
  H 3.337677 -3.056130 -5.196764
  H 6.820588 -0.526463 -1.260938
 23
 0.000000
  H 1.443964 0.130093 0.375016
  C 2.513931 0.133339 0.382774
  C 3.289008 0.605676 1.558186
  H 2.736496 0.947231 2.408463
  C 3.141424 -0.328094 -0.766165
  C 4.457180 -0.427792 -1.014866
  C 5.068474 -0.854226 -2.077894
  C 4.596168 -1.381041 -3.391128
  C 3.111119 -1.509273 -3.711558
  C 2.913940 -2.072700 -5.116135
  O 6.295096 -0.826573 -2.009270
  H 3.945147 1.419863 1.229608
  H 3.945347 -0.209366 1.884185
  H 2.490928 -0.647890 -1.562503
  H 5.098792 -0.102116 -0.203646
  H 5.060268 -2.367057 -3.509542
  H 5.060629 -0.750500 -4.158185
  H 2.628189 -0.532060 -3.666489
  H 2.627797 -2.184192 -3.003684
  H 3.360582 -1.422328 -5.865236
  H 1.852532 -2.160886 -5.336617
  H 3.360194 -3.060639 -5.207997
  H 6.589117 -0.459648 -1.094386
 23
 0.000000
  H 1.500451 0.122022 0.354920
  C 2.570338 0.127941 0.369329
  C 3.336911 0.602196 1.549534
  H 2.778274 0.942358 2.396361
  C 3.206110 -0.331908 -0.775688
  C 4.468147 -0.443123 -1.053108
  C 5.021909 -0.846351 -2.058293
  C 4.575260 -1.376263 -3.379238
  C 3.096690 -1.514481 -3.724528
  C 2.926902 -2.079145 -5.132185
  O 6.149095 -0.798180 -1.938524
  H 3.993044 1.418025 1.225039
  H 3.993246 -0.211208 1.879608
  H 2.561377 -0.653319 -1.576053
  H 5.131083 -0.123420 -0.256791
  H 5.047915 -2.359123 -3.489794
  H 5.048264 -0.742563 -4.138431
  H 2.606498 -0.540546 -3.687621
  H 2.606120 -2.192681 -3.024823
  H 3.381656 -1.425736 -5.873725
  H 1.869959 -2.174469 -5.370437
  H 3.381282 -3.064049 -5.216492
  H 6.351779 -0.398802 -0.942711
 23
 0.000000
  H 1.552519 0.113518 0.333740
  C 2.622239 0.122756 0.356410
  C 3.378201 0.599364 1.542499
  H 2.811988 0.937775 2.384984
  C 3.268259 -0.335096 -0.783661
  C 4.486750 -0.457256 -1.088364
  C 4.986332 -0.840037 -2.042583
  C 4.560134 -1.372283 -3.369335
  C 3.087047 -1.518390 -3.734259
  C 2.939021 -2.083904 -5.144032
  O 6.013203 -0.777032 -1.885829
  H 4.034287 1.417231 1.223077
  H 4.034488 -0.212007 1.877635
  H 2.630726 -0.658493 -1.588979
  H 5.171326 -0.143937 -0.307974
  H 5.039465 -2.352599 -3.473558
  H 5.039803 -0.736038 -4.122192
  H 2.591209 -0.547090 -3.703912
  H 2.590843 -2.199226 -3.041118
  H 3.400101 -1.428049 -5.879480
  H 1.885865 -2.184868 -5.396320
  H 3.399740 -3.066363 -5.222252
  H 6.109319 -0.345414 -0.809619
 23
 0.000000
  H 1.599123 0.104795 0.312004
  C 2.668541 0.118068 0.344727
  C 3.411518 0.597495 1.537865
  H 2.836138 0.933745 2.374989
  C 3.326971 -0.337312 -0.789218
  C 4.514036 -0.469570 -1.119089
  C 4.963934 -0.835658 -2.031696
  C 4.551740 -1.369436 -3.362252
  C 3.082569 -1.520910 -3.740530
  C 2.949408 -2.086939 -5.151578
  O 5.889779 -0.763579 -1.852308
  H 4.067486 1.417840 1.224617
  H 4.067683 -0.211402 1.879162
  H 2.698260 -0.663095 -1.600488
  H 5.219802 -0.162837 -0.355127
  H 5.035571 -2.347995 -3.462103
  H 5.035899 -0.731434 -4.110737
  H 2.582935 -0.551426 -3.714702
  H 2.582581 -2.203562 -3.051908
  H 3.414749 -1.429395 -5.882823
  H 1.898960 -2.191740 -5.413413
  H 3.414399 -3.067710 -5.225596
  H 5.863353 -0.301159 -0.699284
 23
 0.000000
  H 1.639175 0.096276 0.290769
  C 2.708097 0.114300 0.335329
  C 3.435682 0.596983 1.536612
  H 2.849581 0.930645 2.367310
  C 3.381057 -0.338114 -0.791250
  C 4.550275 -0.479020 -1.142675
  C 4.956698 -0.833739 -2.026936
  C 4.550904 -1.368200 -3.359184
  C 3.083566 -1.522121 -3.743539
  C 2.957190 -2.088369 -5.155124
  O 5.780949 -0.758318 -1.839200
  H 4.091427 1.420244 1.230632
  H 4.091616 -0.209003 1.885166
  H 2.762819 -0.666662 -1.609426
  H 5.275659 -0.178699 -0.394706
  H 5.036774 -2.345953 -3.457027
  H 5.037094 -0.729392 -4.105662
  H 2.582215 -0.553471 -3.719784
  H 2.581869 -2.205606 -3.056989
  H 3.424457 -1.430050 -5.884440
  H 1.908010 -2.194920 -5.421303
  H 3.424116 -3.068364 -5.227210
  H 5.616930 -0.267669 -0.615776
 23
 0.000000
  H 1.670087 0.088998 0.272618
  C 2.738307 0.112110 0.329865
  C 3.449274 0.598209 1.539691
  H 2.851771 0.929048 2.363367
  C 3.426741 -0.337054 -0.788638
  C 4.592161 -0.483685 -1.154330
  C 4.965566 -0.834989 -2.030072
  C 4.557787 -1.369246 -3.361796
  C 3.089877 -1.522416 -3.744265
  C 2.961398 -2.088603 -5.155685
  O 5.693884 -0.761508 -1.847146
  H 4.104678 1.424595 1.241500
  H 4.104855 -0.204656 1.896023
  H 2.819830 -0.668515 -1.614088
  H 5.333212 -0.188716 -0.419705
  H 5.043030 -2.347247 -3.460260
  H 5.043344 -0.730688 -4.108900
  H 2.589054 -0.553509 -3.719869
  H 2.588713 -2.205642 -3.057069
  H 3.428066 -1.430524 -5.885603
  H 1.911823 -2.194616 -5.420516
  H 3.427730 -3.068837 -5.228368
  H 5.388546 -0.246859 -0.563873
 23
 0.000000
  H 1.690159 0.084089 0.260366
  C 2.757572 0.111915 0.329371
  C 3.453022 0.601114 1.546944
  H 2.845030 0.929287 2.363984
  C 3.460258 -0.334172 -0.781475
  C 4.631780 -0.482348 -1.151014
  C 4.986292 -0.839431 -2.041156
  C 4.569898 -1.372769 -3.370581
  C 3.099538 -1.522655 -3.744854
  C 2.961922 -2.088547 -5.155531
  O 5.635981 -0.771081 -1.870998
  H 4.108015 1.430394 1.255972
  H 4.108179 -0.198860 1.910489
  H 2.863942 -0.668288 -1.613551
  H 5.382419 -0.190761 -0.424820
  H 5.052395 -2.351852 -3.471742
  H 5.052706 -0.735296 -4.120386
  H 2.601026 -0.552631 -3.717673
  H 2.600689 -2.204762 -3.054868
  H 3.425981 -1.431511 -5.888046
  H 1.910652 -2.192213 -5.414503
  H 3.425648 -3.069821 -5.230806
  H 5.206369 -0.237122 -0.539578
 23
 0.000000
  H 1.702300 0.081374 0.253583
  C 2.768814 0.113645 0.333676
  C 3.449531 0.605708 1.558403
  H 2.831718 0.931326 2.369076
  C 3.484858 -0.329485 -0.769801
  C 4.666692 -0.475371 -1.133629
  C 5.014232 -0.846893 -2.059761
  C 4.584708 -1.378788 -3.385583
  C 3.110708 -1.523645 -3.747316
  C 2.959147 -2.089046 -5.156761
  O 5.601991 -0.784923 -1.905485
  H 4.104053 1.437716 1.274238
  H 4.104202 -0.191538 1.928752
  H 2.898618 -0.666063 -1.608023
  H 5.421852 -0.185409 -0.411482
  H 5.062978 -2.359513 -3.490835
  H 5.063287 -0.742959 -4.139485
  H 2.615762 -0.551923 -3.715904
  H 2.615426 -2.204052 -3.053093
  H 3.419191 -1.433590 -5.893214
  H 1.905359 -2.189116 -5.406767
  H 3.418860 -3.071898 -5.235969
  H 5.064893 -0.232585 -0.528244
 23
 0.000000
  H 1.707785 0.081136 0.252967
  C 2.773245 0.117937 0.344366
  C 3.438838 0.612861 1.576234
  H 2.811084 0.935833 2.380303
  C 3.502829 -0.322121 -0.751447
  C 4.697060 -0.462399 -1.101293
  C 5.048773 -0.858398 -2.088438
  C 4.601544 -1.388269 -3.409211
  C 3.122817 -1.526301 -3.753931
  C 2.952412 -2.090960 -5.161524
  O 5.590901 -0.803206 -1.951041
  H 4.092796 1.447650 1.299007
  H 4.092928 -0.181604 1.953523
  H 2.926946 -0.661169 -1.595833
  H 5.452715 -0.172617 -0.379591
  H 5.074032 -2.371192 -3.519941
  H 5.074340 -0.754640 -4.168596
  H 2.632762 -0.552302 -3.716844
  H 2.632426 -2.204429 -3.054028
  H 3.406966 -1.437620 -5.903248
  H 1.895360 -2.186151 -5.399368
  H 3.406634 -3.075925 -5.245997
  H 4.957674 -0.228268 -0.517459
 23
 0.000000
  H 1.705030 0.084908 0.262342
  C 2.769166 0.126695 0.366184
  C 3.417994 0.624698 1.605733
  H 2.779381 0.944706 2.402402
  C 3.513558 -0.309914 -0.721017
  C 4.723287 -0.442043 -1.050541
  C 5.092442 -0.876627 -2.133869
  C 4.620932 -1.403573 -3.447349
  C 3.136067 -1.532164 -3.768541
  C 2.939741 -2.095657 -5.173224
  O 5.610180 -0.828279 -2.013520
  H 4.071232 1.462547 1.336143
  H 4.071343 -0.166706 1.990662
  H 2.949175 -0.651633 -1.572065
  H 5.476136 -0.151252 -0.326318
  H 5.085332 -2.389481 -3.565517
  H 5.085640 -0.772932 -4.214178
  H 2.652878 -0.555064 -3.723728
  H 2.652540 -2.207188 -3.060905
  H 3.386616 -1.445189 -5.922105
  H 1.878460 -2.184100 -5.394250
  H 3.386281 -3.083492 -5.264848
  H 4.888383 -0.218636 -0.493425
 23
 0.000000
  H 1.692367 0.093705 0.284233
  C 2.755002 0.140493 0.400561
  C 3.386884 0.641511 1.647627
  H 2.737463 0.958492 2.436735
  C 3.514154 -0.292583 -0.677813
  C 4.741359 -0.416694 -0.987335
  C 5.140049 -0.900719 -2.193907
  C 4.640041 -1.424012 -3.498280
  C 3.148486 -1.541402 -3.791566
  C 2.921622 -2.103305 -5.192283
  O 5.662564 -0.858424 -2.088642
  H 4.039295 1.482429 1.385701
  H 4.039384 -0.146822 2.040225
  H 2.961414 -0.636931 -1.535420
  H 5.489754 -0.124315 -0.259144
  H 5.094711 -2.413379 -3.625065
  H 5.095022 -0.796832 -4.273734
  H 2.673588 -0.560697 -3.737770
  H 2.673245 -2.212818 -3.074939
  H 3.359259 -1.456167 -5.949459
  H 1.855745 -2.183744 -5.393366
  H 3.358919 -3.094467 -5.292194
  H 4.869335 -0.199927 -0.446762
 23
 0.000000
  H 1.675562 0.104186 0.310326
  C 2.736570 0.155848 0.438820
  C 3.351816 0.659732 1.693030
  H 2.691948 0.973711 2.474637
  C 3.510007 -0.273714 -0.630773
  C 4.751144 -0.390504 -0.922030
  C 5.181926 -0.924571 -2.253342
  C 4.654797 -1.444160 -3.548487
  C 3.157402 -1.550771 -3.814915
  C 2.901355 -2.110933 -5.211294
  O 5.723086 -0.887662 -2.161503
  H 4.003319 1.503643 1.438571
  H 4.003387 -0.125606 2.093101
  H 2.968716 -0.620575 -1.494647
  H 5.494872 -0.096481 -0.189732
  H 5.099968 -2.436774 -3.683358
  H 5.100282 -0.820229 -4.332033
  H 2.690633 -0.566669 -3.752657
  H 2.690284 -2.218787 -3.089819
  H 3.329973 -1.466920 -5.976255
  H 1.831483 -2.183669 -5.393185
  H 3.329627 -3.105217 -5.318984
  H 4.867740 -0.177228 -0.390160
 23
 0.000000
  H 1.656318 0.115168 0.337668
  C 2.715457 0.171903 0.478821
  C 3.313264 0.678692 1.740275
  H 2.642614 0.989490 2.513936
  C 3.503659 -0.253926 -0.581446
  C 4.755173 -0.363134 -0.853786
  C 5.217834 -0.946867 -2.308898
  C 4.664905 -1.462725 -3.594747
  C 3.162442 -1.558969 -3.835348
  C 2.878526 -2.117267 -5.227081
  O 5.782170 -0.915353 -2.230511
  H 3.963714 1.525717 1.493588
  H 3.963761 -0.103530 2.148122
  H 2.974388 -0.603350 -1.451713
  H 5.493934 -0.067383 -0.117169
  H 5.100819 -2.458383 -3.737203
  H 5.101136 -0.841841 -4.385884
  H 2.703625 -0.571668 -3.765121
  H 2.703271 -2.223784 -3.102277
  H 3.298350 -1.476186 -5.999347
  H 1.805202 -2.182597 -5.390521
  H 3.297999 -3.114481 -5.342069
  H 4.861945 -0.153008 -0.329766
