 17
 0.000000
  C 1.008825 -0.070779 0.048943
  C 2.504675 -0.082804 0.023901
  C 3.218442 -0.596655 -0.982669
  C 4.655604 -0.607758 -1.003450
  C 5.377173 -1.122056 -2.015027
  C 6.815021 -1.131967 -2.033415
  C 7.531839 -1.641226 -3.035093
  H 8.603939 -1.653750 -3.058915
  H 0.649542 0.397618 0.963856
  H 0.612232 -1.085141 0.014122
  H 0.611101 0.492084 -0.794939
  H 3.007143 0.353114 0.876877
  H 2.706489 -1.029725 -1.832785
  H 5.159504 -0.173840 -0.149122
  H 4.873961 -1.556064 -2.869535
  H 7.320600 -0.698309 -1.179586
  H 7.036221 -2.076412 -3.891910
 17
 -0.336026
  C 1.003574 -0.072443 0.057748
  C 2.497674 -0.059871 0.028753
  C 3.219573 -0.588734 -0.961404
  C 4.660260 -0.582564 -1.011912
  C 5.379176 -1.132029 -2.004712
  C 6.814861 -1.125635 -2.050166
  C 7.529220 -1.670111 -3.035378
  H 8.604789 -1.648926 -3.040595
  H 0.626784 0.165696 1.050712
  H 0.624073 -1.049477 -0.239204
  H 0.604704 0.664674 -0.642529
  H 2.999168 0.427120 0.855493
  H 2.711107 -1.066961 -1.791282
  H 5.172275 -0.100307 -0.186719
  H 4.871070 -1.613725 -2.829966
  H 7.317445 -0.642744 -1.221215
  H 7.054863 -2.156777 -3.872093
 17
 -0.508401
  C 1.004053 -0.091389 0.034356
  C 2.494548 -0.001087 0.023583
  C 3.240373 -0.562044 -0.929619
  C 4.673958 -0.554477 -1.000334
  C 5.377846 -1.132785 -1.988270
  C 6.814180 -1.131157 -2.054002
  C 7.512344 -1.699121 -3.035650
  H 8.588194 -1.681015 -3.057004
  H 0.624495 -0.080780 1.053958
  H 0.684302 -1.013471 -0.451866
  H 0.561687 0.751980 -0.497081
  H 2.961987 0.542627 0.833441
  H 2.743052 -1.082751 -1.741020
  H 5.198089 -0.052274 -0.195759
  H 4.856875 -1.635812 -2.793312
  H 7.329732 -0.630231 -1.244001
  H 7.024695 -2.203685 -3.853776
 17
 -0.665006
  C 1.005943 -0.099348 0.023851
  C 2.491263 0.034926 0.004066
  C 3.244181 -0.555420 -0.924366
  C 4.677106 -0.537759 -1.005274
  C 5.377968 -1.140421 -1.980191
  C 6.813777 -1.133924 -2.054320
  C 7.508771 -1.723414 -3.025001
  H 8.584402 -1.700583 -3.052831
  H 0.659074 -0.317677 1.033517
  H 0.705661 -0.916668 -0.631971
  H 0.521848 0.822120 -0.299574
  H 2.943492 0.631728 0.784596
  H 2.749835 -1.106061 -1.717798
  H 5.203713 -0.010443 -0.218583
  H 4.854968 -1.669803 -2.766817
  H 7.331518 -0.609401 -1.260836
  H 7.019076 -2.251366 -3.826945
 17
 0.172493
  C 1.007323 -0.101888 0.056848
  C 2.491592 0.093275 -0.066194
  C 3.224215 -0.544165 -0.985821
  C 4.659032 -0.537418 -1.035846
  C 5.377355 -1.140342 -1.997476
  C 6.815467 -1.160274 -2.028653
  C 7.528741 -1.744122 -2.990487
  H 8.606405 -1.738939 -2.987138
  H 0.776429 -0.500356 1.048583
  H 0.685492 -0.851455 -0.678078
  H 0.443517 0.826408 -0.054650
  H 2.958179 0.781830 0.631980
  H 2.719485 -1.078647 -1.782474
  H 5.172180 -0.029929 -0.227090
  H 4.867458 -1.654771 -2.805110
  H 7.319312 -0.657365 -1.210907
  H 7.053044 -2.251743 -3.816056
 17
 5.346181
  C 1.026267 -0.129598 0.038642
  C 2.481439 0.163722 -0.079832
  C 3.226643 -0.511252 -0.967451
  C 4.656490 -0.558166 -0.997547
  C 5.369504 -1.113792 -1.996345
  C 6.805499 -1.188395 -2.009163
  C 7.512209 -1.756571 -2.987577
  H 8.586514 -1.815109 -2.957152
  H 0.860413 -0.633207 0.995732
  H 0.787302 -0.873416 -0.721526
  H 0.390494 0.743106 0.005141
  H 2.904550 0.929284 0.555979
  H 2.741341 -0.917839 -1.846104
  H 5.175800 -0.117008 -0.155978
  H 4.853305 -1.586502 -2.820493
  H 7.315070 -0.738654 -1.166330
  H 7.031853 -2.198640 -3.844773
 17
 17.921325
  C 1.084260 -0.206717 0.074040
  C 2.477590 0.289081 -0.126563
  C 3.200292 -0.357630 -1.061932
  C 4.621877 -0.476694 -1.045306
  C 5.338584 -1.075781 -2.016784
  C 6.766280 -1.278921 -1.953511
  C 7.482664 -1.826992 -2.930418
  H 8.551948 -1.933415 -2.865164
  H 1.062885 -0.835701 0.974112
  H 1.037177 -0.990619 -0.690388
  H 0.312350 0.545027 0.162906
  H 2.856418 1.138515 0.435286
  H 2.726002 -0.649851 -1.987195
  H 5.122854 -0.154215 -0.144661
  H 4.839632 -1.397786 -2.921819
  H 7.253094 -0.962269 -1.038262
  H 7.022779 -2.146130 -3.851983
 17
 37.163819
  C 1.099917 -0.186837 0.070058
  C 2.475313 0.339112 -0.072319
  C 3.200379 -0.399072 -0.964734
  C 4.623517 -0.555640 -0.958121
  C 5.340160 -1.091454 -1.993633
  C 6.755977 -1.322997 -1.952506
  C 7.468724 -1.782462 -2.989034
  H 8.537665 -1.893953 -2.942565
  H 0.995343 -0.910070 0.894575
  H 1.238429 -1.008057 -0.663633
  H 0.292695 0.528396 0.055951
  H 2.790135 1.286046 0.325719
  H 2.755850 -0.565063 -1.939023
  H 5.149423 -0.247069 -0.059971
  H 4.825557 -1.397339 -2.897284
  H 7.260641 -1.051369 -1.033195
  H 6.995049 -2.085919 -3.907252
 17
 63.749771
  C 1.218532 -0.293663 0.099317
  C 2.418691 0.493735 -0.127798
  C 3.159930 -0.212060 -1.083424
  C 4.577309 -0.419713 -1.036870
  C 5.292173 -1.030488 -2.019194
  C 6.693637 -1.312869 -1.928588
  C 7.396709 -1.912624 -2.890925
  H 8.447614 -2.122436 -2.785175
  H 1.315833 -1.158534 0.767910
  H 1.631574 -1.055127 -0.764265
  H 0.279206 0.204388 0.311333
  H 2.689748 1.424059 0.348181
  H 2.759740 -0.268091 -2.093181
  H 5.073763 -0.153509 -0.108012
  H 4.790036 -1.347413 -2.924427
  H 7.180835 -1.018616 -1.007280
  H 6.943202 -2.190124 -3.827915
 17
 80.254238
  C 1.210147 -0.186181 0.164910
  C 2.387061 0.499289 -0.158713
  C 3.099545 -0.332643 -1.069540
  C 4.531364 -0.540514 -1.010588
  C 5.262677 -1.079974 -2.001987
  C 6.675918 -1.327599 -1.912598
  C 7.407063 -1.832972 -2.905041
  H 8.465344 -2.001955 -2.806881
  H 1.259407 -1.073808 0.778888
  H 1.873226 -1.136597 -0.797234
  H 0.285987 0.362488 0.353337
  H 2.696382 1.469129 0.201278
  H 2.707108 -0.388509 -2.081277
  H 5.014951 -0.281456 -0.076119
  H 4.779872 -1.361139 -2.930079
  H 7.147914 -1.067076 -0.973150
  H 6.964513 -2.098548 -3.851117
 17
 62.426022
  C 1.227364 -0.130541 0.245973
  C 2.338305 0.515678 -0.173135
  C 3.048831 -0.357718 -1.131194
  C 4.502869 -0.565844 -1.044253
  C 5.250311 -1.118285 -2.011504
  C 6.668485 -1.358391 -1.892698
  C 7.423807 -1.828388 -2.874898
  H 8.486654 -1.957986 -2.767868
  H 1.302781 -1.072867 0.761051
  H 2.190639 -1.172428 -0.901853
  H 0.315460 0.381812 0.544944
  H 2.658490 1.508865 0.115038
  H 2.665468 -0.369309 -2.160758
  H 4.961749 -0.304631 -0.100749
  H 4.787800 -1.398519 -2.949468
  H 7.118105 -1.081913 -0.946933
  H 7.000879 -2.096008 -3.828900
 17
 37.832540
  C 1.231539 -0.031414 0.327575
  C 2.297230 0.497100 -0.273611
  C 2.996886 -0.492807 -1.154387
  C 4.457102 -0.680566 -1.039401
  C 5.243876 -1.141070 -2.018750
  C 6.671318 -1.314939 -1.888491
  C 7.458761 -1.742055 -2.872137
  H 8.504312 -1.943395 -2.718214
  H 1.271375 -1.005762 0.786628
  H 2.274914 -1.325329 -0.943060
  H 0.415444 0.551444 0.738664
  H 2.692495 1.482572 -0.082508
  H 2.669963 -0.404137 -2.202980
  H 4.890335 -0.430254 -0.079511
  H 4.814084 -1.401021 -2.977980
  H 7.096610 -1.067390 -0.923349
  H 7.058477 -2.010012 -3.837121
 17
 20.052992
  C 1.245844 0.038712 0.396223
  C 2.308761 0.440530 -0.283770
  C 2.968529 -0.566509 -1.175584
  C 4.436469 -0.744117 -1.044955
  C 5.240622 -1.146401 -2.030629
  C 6.664480 -1.332505 -1.879658
  C 7.469354 -1.710299 -2.866290
  H 8.527879 -1.841236 -2.722429
  H 1.130147 -0.985186 0.714826
  H 2.357510 -1.464287 -0.966094
  H 0.546521 0.704856 0.881720
  H 2.748496 1.420192 -0.174022
  H 2.674940 -0.398352 -2.220886
  H 4.848426 -0.544657 -0.063422
  H 4.830311 -1.354230 -3.011217
  H 7.067471 -1.144388 -0.892490
  H 7.093976 -1.897695 -3.859087
 17
 9.561820
  C 1.304588 0.094240 0.497511
  C 2.307574 0.374437 -0.312512
  C 2.915806 -0.655071 -1.213214
  C 4.393422 -0.805243 -1.055979
  C 5.225060 -1.151600 -2.037640
  C 6.649709 -1.313710 -1.862839
  C 7.480763 -1.654069 -2.842679
  H 8.538654 -1.769552 -2.681540
  H 0.972370 -0.919227 0.658252
  H 2.394584 -1.598467 -1.011654
  H 0.783054 0.846269 1.066372
  H 2.744915 1.362993 -0.344803
  H 2.671407 -0.408180 -2.252857
  H 4.780638 -0.623752 -0.061237
  H 4.840196 -1.334266 -3.033377
  H 7.029813 -1.139239 -0.864146
  H 7.127184 -1.831135 -3.845422
 17
 8.578778
  C 1.432820 0.042210 0.600317
  C 2.273807 0.380267 -0.358666
  C 2.873667 -0.606915 -1.308729
  C 4.346423 -0.784834 -1.097331
  C 5.207263 -1.128831 -2.054044
  C 6.620442 -1.326056 -1.828450
  C 7.477104 -1.687540 -2.778111
  H 8.525600 -1.828968 -2.580409
  H 1.155596 -0.989463 0.753678
  H 2.360531 -1.563978 -1.184098
  H 0.958193 0.759979 1.247198
  H 2.558595 1.412998 -0.510752
  H 2.688711 -0.274983 -2.335541
  H 4.698037 -0.633933 -0.084654
  H 4.858985 -1.276759 -3.068806
  H 6.969089 -1.160419 -0.816880
  H 7.154873 -1.858346 -3.792488
