 20
 0.000000
  C 1.017287 0.110790 0.327025
  C 2.491375 0.122085 0.355855
  C 3.210356 0.601866 1.549250
  H 2.550925 0.922617 2.346995
  C 3.149107 -0.333859 -0.778329
  C 4.530835 -0.400184 -0.943958
  C 5.184257 -0.856880 -2.083708
  C 4.545579 -1.352490 -3.319440
  H 3.465571 -1.354210 -3.323182
  O 6.495544 -0.879463 -2.142229
  H 0.577117 0.480201 1.245581
  H 0.653089 -0.901901 0.148434
  H 0.653433 0.718261 -0.502833
  H 3.862055 1.434351 1.278456
  H 3.862034 -0.186358 1.930122
  H 2.510145 -0.658074 -1.585426
  H 5.148333 -0.069219 -0.119399
  H 4.910850 -2.363212 -3.508216
  H 4.910577 -0.752052 -4.154196
  H 6.940053 -0.556049 -1.336182
 20
 -0.317710
  C 1.013008 0.118946 0.339538
  C 2.486953 0.118210 0.337628
  C 3.215616 0.584015 1.534854
  H 2.533359 0.885266 2.326117
  C 3.139126 -0.335301 -0.801226
  C 4.522961 -0.403992 -0.948793
  C 5.195408 -0.854203 -2.084573
  C 4.556442 -1.332762 -3.326492
  H 3.475883 -1.297265 -3.292818
  O 6.504413 -0.882172 -2.123482
  H 0.597812 0.605013 1.216224
  H 0.647578 -0.908715 0.311010
  H 0.623319 0.595483 -0.559943
  H 3.855362 1.430851 1.286281
  H 3.869901 -0.199213 1.917100
  H 2.512211 -0.654447 -1.621294
  H 5.134243 -0.081928 -0.116683
  H 4.883628 -2.352270 -3.523536
  H 4.917454 -0.736799 -4.163085
  H 6.949625 -0.568492 -1.312384
 20
 -0.343073
  C 1.011977 0.083346 0.352015
  C 2.484929 0.114631 0.336930
  C 3.208318 0.603833 1.526290
  H 2.525258 0.896031 2.316951
  C 3.139266 -0.327773 -0.804971
  C 4.522237 -0.422887 -0.941892
  C 5.194851 -0.855195 -2.083159
  C 4.555267 -1.279060 -3.347250
  H 3.476718 -1.198140 -3.329484
  O 6.503765 -0.920293 -2.108088
  H 0.596065 0.674750 1.161086
  H 0.675955 -0.947957 0.479932
  H 0.595661 0.424021 -0.595189
  H 3.827944 1.461698 1.266136
  H 3.883319 -0.161053 1.911295
  H 2.507868 -0.619212 -1.631391
  H 5.131692 -0.150593 -0.089286
  H 4.841206 -2.309057 -3.560938
  H 4.957171 -0.682527 -4.166197
  H 6.946632 -0.648137 -1.282654
 20
 -0.555369
  C 1.003641 0.067024 0.364384
  C 2.475689 0.098565 0.331591
  C 3.198007 0.569530 1.530009
  H 2.511738 0.848491 2.324462
  C 3.132246 -0.330122 -0.814642
  C 4.516338 -0.420027 -0.946358
  C 5.195634 -0.838098 -2.090465
  C 4.564262 -1.224003 -3.367767
  H 3.493492 -1.086988 -3.373186
  O 6.505098 -0.914803 -2.105792
  H 0.599610 0.818154 1.037627
  H 0.680164 -0.908639 0.742205
  H 0.570994 0.186293 -0.623228
  H 3.817319 1.429657 1.285585
  H 3.869653 -0.202014 1.905723
  H 2.505726 -0.619171 -1.644197
  H 5.120657 -0.143925 -0.095529
  H 4.800464 -2.264215 -3.578246
  H 5.014255 -0.648696 -4.173642
  H 6.943432 -0.669656 -1.270658
 20
 -0.802252
  C 0.998180 0.016109 0.382632
  C 2.468083 0.061264 0.336898
  C 3.183749 0.530811 1.540403
  H 2.491870 0.828829 2.320926
  C 3.129433 -0.343843 -0.814426
  C 4.515067 -0.417209 -0.947399
  C 5.197024 -0.800030 -2.102070
  C 4.569185 -1.142825 -3.393737
  H 3.504143 -0.956711 -3.414164
  O 6.505581 -0.876114 -2.116271
  H 0.595053 0.895875 0.882880
  H 0.689417 -0.845481 0.981496
  H 0.550119 -0.078621 -0.604527
  H 3.827135 1.377851 1.298260
  H 3.830522 -0.253979 1.932942
  H 2.514270 -0.625187 -1.654360
  H 5.117479 -0.168149 -0.085676
  H 4.756503 -2.194222 -3.610278
  H 5.056896 -0.579592 -4.186676
  H 6.941211 -0.665419 -1.269426
 20
 -0.967693
  C 0.994798 -0.029282 0.397722
  C 2.462112 0.028441 0.342214
  C 3.171889 0.490560 1.550572
  H 2.473990 0.809154 2.320254
  C 3.126012 -0.343714 -0.817345
  C 4.513166 -0.400599 -0.951201
  C 5.197382 -0.758944 -2.110838
  C 4.569672 -1.075677 -3.409169
  H 3.511090 -0.857012 -3.434129
  O 6.505786 -0.844107 -2.122427
  H 0.589732 0.938441 0.699565
  H 0.687851 -0.737346 1.171906
  H 0.547287 -0.320961 -0.548180
  H 3.843113 1.315948 1.316052
  H 3.789074 -0.312032 1.958477
  H 2.512506 -0.616758 -1.662813
  H 5.111827 -0.170588 -0.082193
  H 4.728148 -2.133782 -3.632645
  H 5.080995 -0.521025 -4.195628
  H 6.940664 -0.659475 -1.269875
 20
 -0.933475
  C 0.990368 -0.098063 0.421834
  C 2.457153 -0.020588 0.359113
  C 3.168800 0.443003 1.566338
  H 2.473725 0.807094 2.314998
  C 3.121195 -0.357859 -0.811361
  C 4.508737 -0.373358 -0.955209
  C 5.192812 -0.695739 -2.125002
  C 4.559353 -0.983133 -3.428534
  H 3.504611 -0.749704 -3.446376
  O 6.501629 -0.773885 -2.143295
  H 0.573735 0.905886 0.514567
  H 0.674313 -0.637833 1.315287
  H 0.558138 -0.564242 -0.460871
  H 3.886117 1.227115 1.327192
  H 3.735757 -0.380743 2.005453
  H 2.508047 -0.632807 -1.653896
  H 5.106899 -0.148087 -0.085597
  H 4.700651 -2.034741 -3.667444
  H 5.077829 -0.423314 -4.209063
  H 6.938701 -0.621466 -1.285229
 20
 0.375797
  C 1.005185 -0.189457 0.441195
  C 2.467093 -0.024016 0.379395
  C 3.151640 0.606508 1.524544
  H 2.438389 1.002361 2.240474
  C 3.131503 -0.403036 -0.777026
  C 4.515254 -0.486590 -0.921116
  C 5.186932 -0.756814 -2.112805
  C 4.547844 -0.833383 -3.443663
  H 3.502767 -0.555472 -3.425063
  O 6.487639 -0.923103 -2.136709
  H 0.546761 0.790855 0.302600
  H 0.693940 -0.578148 1.407358
  H 0.626174 -0.826500 -0.354506
  H 3.817406 1.400677 1.191774
  H 3.774578 -0.126961 2.040680
  H 2.476561 -0.637552 -1.602861
  H 5.113246 -0.386221 -0.024658
  H 4.648614 -1.847012 -3.833149
  H 5.091400 -0.190862 -4.134878
  H 6.924972 -0.893324 -1.265012
