 14
 0.000000
  C 0.939474 0.147767 0.417657
  C 2.391819 0.105200 0.313814
  H 2.980420 0.443211 1.156308
  C 3.044439 -0.346400 -0.810545
  C 4.438945 -0.384602 -0.907546
  C 5.134198 -0.829797 -2.017352
  H 4.635954 -1.189274 -2.911529
  O 6.422637 -0.861967 -2.099764
  H 0.601686 0.532002 1.374237
  H 0.519085 -0.848101 0.256512
  H 0.520201 0.756262 -0.387554
  H 2.458370 -0.685596 -1.654807
  H 5.026680 -0.044398 -0.061949
  H 6.888643 -0.540362 -1.299098
 14
 12.836661
  C 0.973411 0.154859 0.458066
  C 2.422606 0.109966 0.292891
  H 3.037548 0.439896 1.120441
  C 3.024947 -0.346362 -0.855208
  C 4.427202 -0.432563 -1.005349
  C 5.089004 -0.895585 -2.113644
  H 4.818920 -1.297350 -3.074434
  O 6.372073 -0.751428 -1.948035
  H 0.674025 0.538060 1.427753
  H 0.532094 -0.831327 0.293938
  H 0.537018 0.779042 -0.326575
  H 2.413872 -0.662735 -1.691001
  H 4.906869 -0.089115 -0.099999
  H 6.770763 -0.459134 -1.104962
 14
 36.644852
  C 0.977364 0.139277 0.458869
  C 2.430455 0.130563 0.282153
  H 3.053020 0.429411 1.113493
  C 3.020615 -0.314302 -0.871009
  C 4.435753 -0.443138 -1.040912
  C 5.074586 -0.965285 -2.154541
  H 4.878896 -1.398127 -3.102282
  O 6.328036 -0.671718 -1.895300
  H 0.692336 0.499003 1.446832
  H 0.517230 -0.837984 0.281226
  H 0.571366 0.829653 -0.261226
  H 2.434067 -0.619904 -1.729664
  H 4.832330 -0.115630 -0.087383
  H 6.757705 -0.405025 -1.064476
 14
 51.837593
  C 0.991748 0.177101 0.445848
  C 2.440617 0.075160 0.297131
  H 3.124011 0.295843 1.112930
  C 3.017240 -0.332427 -0.877384
  C 4.440186 -0.457912 -1.059609
  C 5.077595 -1.033616 -2.129186
  H 4.976630 -1.549337 -3.058769
  O 6.293002 -0.527259 -1.919928
  H 0.667586 0.428191 1.451493
  H 0.501885 -0.767468 0.222586
  H 0.609097 0.961895 -0.210590
  H 2.370463 -0.584928 -1.716277
  H 4.718027 -0.144584 -0.065364
  H 6.786106 -0.284319 -1.117930
 14
 52.684310
  C 0.984127 0.166306 0.434311
  C 2.428756 0.017933 0.344512
  H 2.947168 0.191042 1.239417
  C 3.020963 -0.337234 -0.862916
  C 4.437062 -0.475954 -1.022921
  C 5.052810 -1.033894 -1.997416
  H 4.963033 -1.563641 -2.929132
  O 6.223460 -0.378547 -2.031277
  H 0.697272 0.432660 1.448173
  H 0.355965 -0.684129 0.196901
  H 0.761609 0.956608 -0.258147
  H 2.436835 -0.600825 -1.805664
  H 4.853166 -0.231065 -0.090257
  H 6.872149 -0.204693 -1.293239
 14
 58.591990
  C 0.976051 0.214666 0.412726
  C 2.425520 -0.043618 0.302023
  H 3.012101 0.014774 1.216200
  C 3.049337 -0.349913 -0.872496
  C 4.466221 -0.561162 -0.926371
  C 5.095998 -1.157015 -1.978672
  H 4.961885 -1.694382 -2.898814
  O 6.095329 -0.147494 -2.084534
  H 0.705849 0.411118 1.447483
  H 0.400621 -0.639615 0.095270
  H 0.709879 1.070282 -0.186272
  H 2.454846 -0.511545 -1.778004
  H 4.911548 -0.421147 0.031738
  H 6.796595 0.056272 -1.406479
 14
 67.095230
  C 1.039956 0.186523 0.411644
  C 2.479281 -0.034785 0.312995
  H 3.044384 -0.008946 1.235874
  C 3.109654 -0.293540 -0.864656
  C 4.489996 -0.637355 -0.888418
  C 5.111647 -1.204317 -2.004307
  H 4.856631 -1.643444 -2.954430
  O 5.823117 0.016536 -2.016858
  H 0.723098 0.351405 1.457885
  H 0.488361 -0.677592 0.005168
  H 0.756046 1.041583 -0.188466
  H 2.564774 -0.313535 -1.776954
  H 5.019108 -0.611413 0.049850
  H 6.593470 0.049240 -1.403391
 14
 66.687744
  C 1.086180 0.238651 0.390038
  C 2.526465 -0.095977 0.305264
  H 3.066265 -0.177790 1.238744
  C 3.163424 -0.310861 -0.850715
  C 4.564382 -0.700007 -0.880724
  C 5.182367 -1.316578 -2.021193
  H 5.028574 -1.780471 -2.971407
  O 5.478586 0.060018 -1.892961
  H 0.788366 0.441740 1.418470
  H 0.493533 -0.602762 0.033097
  H 0.840621 1.103663 -0.230464
  H 2.635715 -0.263813 -1.792719
  H 5.069627 -0.771836 0.082220
  H 6.317927 0.358410 -1.456595
