 25
 0.000000
  C 0.977438 0.160065 0.451717
  C 2.448555 0.139868 0.399900
  C 3.238470 0.603694 1.552238
  H 2.640809 0.940089 2.389533
  C 3.041676 -0.329757 -0.768612
  C 4.423182 -0.417510 -0.987945
  C 5.085510 -0.866457 -2.107197
  C 4.614781 -1.385156 -3.401108
  C 3.131576 -1.512909 -3.721495
  C 2.936760 -2.076401 -5.127353
  H 6.166310 -0.850743 -2.067725
  H 0.592797 0.538738 1.393472
  H 0.583540 -0.845042 0.292881
  H 0.582701 0.774880 -0.358729
  H 3.893859 1.420168 1.241223
  H 3.894684 -0.200165 1.892913
  H 2.371638 -0.644692 -1.551553
  H 5.054538 -0.089713 -0.171643
  H 5.085908 -2.369746 -3.524979
  H 5.086753 -0.759395 -4.170785
  H 2.649936 -0.535036 -3.675062
  H 2.649153 -2.187527 -3.012606
  H 3.385239 -1.426135 -5.875035
  H 1.877105 -2.166370 -5.353078
  H 3.384516 -3.063412 -5.218696
 25
 9.328390
  C 0.947038 0.196223 0.541505
  C 2.405938 0.174828 0.486908
  C 3.213577 0.628104 1.613531
  H 2.621989 0.966701 2.456732
  C 3.055654 -0.350399 -0.820293
  C 4.426586 -0.433202 -1.027452
  C 5.093824 -0.881343 -2.144677
  C 4.631576 -1.400928 -3.440548
  C 3.149595 -1.531229 -3.767063
  C 2.961998 -2.095093 -5.173646
  H 6.175641 -0.861254 -2.094395
  H 0.569671 0.575881 1.485902
  H 0.550345 -0.808248 0.381006
  H 0.549603 0.809634 -0.269608
  H 3.870644 1.440572 1.294812
  H 3.871451 -0.178344 1.945578
  H 2.378099 -0.661245 -1.593115
  H 5.054955 -0.104270 -0.208274
  H 5.106388 -2.384056 -3.563369
  H 5.107168 -0.775566 -4.208535
  H 2.666493 -0.553825 -3.722429
  H 2.665794 -2.206736 -3.059735
  H 3.413055 -1.444004 -5.919127
  H 1.903693 -2.187355 -5.404932
  H 3.412418 -3.081153 -5.262761
 25
 28.075599
  C 0.910413 0.216794 0.592351
  C 2.356889 0.201177 0.552042
  C 3.237163 0.628083 1.614904
  H 2.683099 0.976578 2.483858
  C 3.042353 -0.382735 -0.902521
  C 4.401971 -0.447056 -1.063725
  C 5.084123 -0.882752 -2.149414
  C 4.649103 -1.402476 -3.444508
  C 3.168964 -1.534489 -3.774748
  C 2.984162 -2.098675 -5.181519
  H 6.164175 -0.849260 -2.065883
  H 0.540446 0.597793 1.540739
  H 0.510992 -0.786369 0.432124
  H 0.510409 0.830397 -0.217109
  H 3.897824 1.422773 1.266111
  H 3.898481 -0.186823 1.912072
  H 2.328722 -0.679852 -1.641419
  H 5.011268 -0.115341 -0.237052
  H 5.128169 -2.383752 -3.561756
  H 5.128675 -0.774807 -4.207464
  H 2.683937 -0.558352 -3.731298
  H 2.683325 -2.209627 -3.068914
  H 3.439686 -1.447736 -5.924699
  H 1.927403 -2.193175 -5.418240
  H 3.439037 -3.082962 -5.268805
 25
 49.325547
  C 0.869089 0.260295 0.699781
  C 2.305024 0.244717 0.660135
  C 3.246340 0.650360 1.672562
  H 2.738848 1.007736 2.564599
  C 3.014584 -0.399173 -0.945814
  C 4.359823 -0.452977 -1.080637
  C 5.082444 -0.893499 -2.177815
  C 4.668266 -1.420601 -3.490024
  C 3.192009 -1.559747 -3.837516
  C 3.032334 -2.124916 -5.245414
  H 6.153976 -0.850043 -2.069570
  H 0.498127 0.641905 1.651636
  H 0.468676 -0.744886 0.529167
  H 0.468226 0.869127 -0.117713
  H 3.912165 1.434344 1.289828
  H 3.912089 -0.181056 1.936894
  H 2.255727 -0.680243 -1.645560
  H 4.957031 -0.116443 -0.241892
  H 5.155789 -2.397941 -3.607363
  H 5.156129 -0.796216 -4.250755
  H 2.706592 -0.583016 -3.803141
  H 2.705953 -2.241188 -3.137312
  H 3.494544 -1.470715 -5.981853
  H 1.979766 -2.225916 -5.498134
  H 3.493931 -3.107113 -5.324962
 25
 70.034541
  C 0.836612 0.292136 0.779276
  C 2.262021 0.277491 0.741948
  C 3.222831 0.667226 1.714611
  H 2.738851 1.030586 2.621394
  C 3.012938 -0.424188 -1.007987
  C 4.371811 -0.472089 -1.128184
  C 5.104962 -0.908148 -2.214275
  C 4.697750 -1.433573 -3.522264
  C 3.219561 -1.570158 -3.863519
  C 3.048098 -2.135837 -5.272557
  H 6.183245 -0.859939 -2.094186
  H 0.464460 0.673018 1.729385
  H 0.438877 -0.708941 0.603765
  H 0.438233 0.894582 -0.039080
  H 3.883684 1.437422 1.315925
  H 3.883585 -0.165318 1.958004
  H 2.237066 -0.695312 -1.682930
  H 4.961455 -0.134276 -0.286439
  H 5.184600 -2.411779 -3.639115
  H 5.184986 -0.808283 -4.283298
  H 2.737715 -0.592595 -3.823902
  H 2.737035 -2.248432 -3.158966
  H 3.507072 -1.483014 -6.012046
  H 1.993574 -2.234124 -5.518635
  H 3.506296 -3.119081 -5.355154
 25
 88.936516
  C 0.796036 0.327257 0.866823
  C 2.225541 0.313680 0.832224
  C 3.221294 0.696792 1.788004
  H 2.764304 1.066018 2.708898
  C 3.017355 -0.446061 -1.061571
  C 4.353400 -0.486528 -1.163610
  C 5.109497 -0.920371 -2.244457
  C 4.718515 -1.450746 -3.564998
  C 3.243421 -1.591248 -3.916136
  C 3.079386 -2.156495 -5.324364
  H 6.180684 -0.865506 -2.107931
  H 0.417582 0.708820 1.818379
  H 0.399145 -0.676460 0.685537
  H 0.398435 0.927322 0.042376
  H 3.884366 1.462086 1.370081
  H 3.884106 -0.145499 2.014391
  H 2.220465 -0.709937 -1.718104
  H 4.930807 -0.145404 -0.313945
  H 5.208636 -2.428033 -3.677423
  H 5.209035 -0.822952 -4.322148
  H 2.759884 -0.614090 -3.877259
  H 2.759155 -2.269828 -3.212478
  H 3.540674 -1.502611 -6.061375
  H 2.026362 -2.256695 -5.575337
  H 3.539887 -3.138888 -5.404568
 25
 105.139771
  C 0.770029 0.361207 0.951075
  C 2.183440 0.346445 0.914037
  C 3.192804 0.713876 1.831143
  H 2.765425 1.087865 2.763540
  C 3.010327 -0.471858 -1.125618
  C 4.361655 -0.506600 -1.213803
  C 5.131635 -0.935760 -2.283211
  C 4.749103 -1.463665 -3.597413
  C 3.272604 -1.601865 -3.942455
  C 3.098810 -2.166844 -5.349839
  H 6.202147 -0.876376 -2.135747
  H 0.390884 0.742375 1.901691
  H 0.374737 -0.640841 0.766529
  H 0.374230 0.957955 0.125418
  H 3.851272 1.467889 1.394672
  H 3.850661 -0.133336 2.036552
  H 2.195295 -0.726584 -1.759237
  H 4.931238 -0.163087 -0.358577
  H 5.237963 -2.440967 -3.708897
  H 5.238183 -0.835210 -4.353923
  H 2.791806 -0.623491 -3.899239
  H 2.791240 -2.278347 -3.234757
  H 3.557516 -1.513807 -6.089463
  H 2.043930 -2.264768 -5.594889
  H 3.556823 -3.150295 -5.432459
 25
 118.510240
  C 0.727015 0.399229 1.045118
  C 2.151248 0.383240 1.005968
  C 3.190379 0.746424 1.913956
  H 2.789724 1.126265 2.861250
  C 3.017594 -0.492409 -1.178051
  C 4.341613 -0.520714 -1.250288
  C 5.136325 -0.947175 -2.312869
  C 4.769988 -1.481975 -3.643513
  C 3.296410 -1.625345 -4.000809
  C 3.132298 -2.191055 -5.409051
  H 6.204047 -0.880903 -2.148494
  H 0.340254 0.780714 1.997236
  H 0.332501 -0.604144 0.855719
  H 0.332461 0.994329 0.215373
  H 3.849027 1.494727 1.460442
  H 3.847839 -0.108895 2.102880
  H 2.187653 -0.739489 -1.792828
  H 4.896929 -0.174168 -0.387699
  H 5.262605 -2.459119 -3.750087
  H 5.262699 -0.850410 -4.396671
  H 2.813177 -0.648035 -3.959648
  H 2.812802 -2.302324 -3.295002
  H 3.593906 -1.537014 -6.145688
  H 2.079323 -2.291757 -5.660552
  H 3.593434 -3.173189 -5.488414
 25
 129.045017
  C 0.707574 0.434745 1.133335
  C 2.111108 0.414545 1.084093
  C 3.151332 0.765001 1.960779
  H 2.777858 1.147760 2.915201
  C 3.009293 -0.520010 -1.246489
  C 4.355536 -0.543453 -1.307097
  C 5.163384 -0.964930 -2.357510
  C 4.803162 -1.495284 -3.676875
  C 3.328052 -1.634800 -4.024256
  C 3.150911 -2.199730 -5.430342
  H 6.226950 -0.895320 -2.185116
  H 0.322169 0.815786 2.084433
  H 0.313979 -0.567037 0.942373
  H 0.314162 1.027793 0.303629
  H 3.804853 1.503973 1.491306
  H 3.803304 -0.094812 2.131869
  H 2.161708 -0.758991 -1.840982
  H 4.903942 -0.194233 -0.438161
  H 5.292830 -2.472197 -3.783270
  H 5.292763 -0.863774 -4.429767
  H 2.848382 -0.655797 -3.978098
  H 2.848156 -2.309535 -3.313590
  H 3.608980 -1.546940 -6.170501
  H 2.095579 -2.297165 -5.673480
  H 3.608596 -3.183297 -5.513028
 25
 136.659523
  C 0.660763 0.478082 1.241685
  C 2.083894 0.452379 1.178416
  C 3.138716 0.809464 2.071257
  H 2.780946 1.197055 3.037584
  C 3.029096 -0.539119 -1.293529
  C 4.342054 -0.560090 -1.348248
  C 5.170430 -0.980622 -2.396384
  C 4.822847 -1.517472 -3.731999
  C 3.350477 -1.663341 -4.095663
  C 3.187906 -2.229285 -5.504233
  H 6.235015 -0.906533 -2.212607
  H 0.266684 0.860459 2.195932
  H 0.268199 -0.524743 1.047699
  H 0.268240 1.069539 0.408969
  H 3.792420 1.545176 1.592207
  H 3.790918 -0.054518 2.233344
  H 2.176976 -0.774505 -1.879090
  H 4.878841 -0.208876 -0.474271
  H 5.316938 -2.494429 -3.833471
  H 5.317118 -0.882622 -4.481351
  H 2.866919 -0.686125 -4.053327
  H 2.866471 -2.339318 -3.389007
  H 3.650373 -1.574993 -6.240132
  H 2.135245 -2.330391 -5.756856
  H 3.649789 -3.211154 -5.582710
 25
 140.714672
  C 0.641348 0.533437 1.381695
  C 2.052149 0.476216 1.237342
  C 3.090166 0.839406 2.142758
  H 2.762840 1.228558 3.113137
  C 3.006232 -0.578157 -1.387741
  C 4.327699 -0.591001 -1.423762
  C 5.194339 -1.001811 -2.447789
  C 4.861749 -1.536111 -3.777177
  C 3.392559 -1.681855 -4.143247
  C 3.229222 -2.247136 -5.550511
  H 6.250974 -0.919767 -2.242529
  H 0.273828 0.917278 2.339159
  H 0.239347 -0.466258 1.193916
  H 0.237994 1.125583 0.555374
  H 3.738559 1.566746 1.643545
  H 3.738287 -0.031553 2.284428
  H 2.123885 -0.798040 -1.935294
  H 4.839611 -0.233978 -0.534494
  H 5.358119 -2.511469 -3.874427
  H 5.359432 -0.900027 -4.521967
  H 2.909687 -0.704494 -4.097540
  H 2.908119 -2.355058 -3.434337
  H 3.691407 -1.593352 -6.286780
  H 2.176403 -2.346865 -5.801691
  H 3.689556 -3.229416 -5.629386
 25
 144.014438
  C 0.607397 0.574312 1.484481
  C 2.023194 0.511009 1.324044
  C 3.059317 0.875430 2.231110
  H 2.731866 1.265249 3.202861
  C 3.018905 -0.601238 -1.443865
  C 4.340835 -0.611781 -1.474499
  C 5.214865 -1.020908 -2.494541
  C 4.887002 -1.553446 -3.819923
  C 3.416732 -1.700220 -4.189477
  C 3.255388 -2.265933 -5.598318
  H 6.272988 -0.936993 -2.283989
  H 0.248156 0.960561 2.447463
  H 0.200783 -0.424790 1.300019
  H 0.198982 1.167681 0.660722
  H 3.706252 1.601768 1.731328
  H 3.706519 0.005326 2.371862
  H 2.132569 -0.817088 -1.981705
  H 4.848258 -0.252881 -0.580057
  H 5.385032 -2.527980 -3.915917
  H 5.386728 -0.917058 -4.563081
  H 2.933006 -0.722678 -4.143999
  H 2.931077 -2.373716 -3.480778
  H 3.718250 -1.611890 -6.334100
  H 2.202812 -2.366009 -5.851020
  H 3.716096 -3.248322 -5.676815
 25
 146.399753
  C 0.577594 0.616349 1.589638
  C 1.991001 0.546672 1.412956
  C 3.025112 0.914876 2.329329
  H 2.695178 1.304310 3.300410
  C 3.030755 -0.622524 -1.497257
  C 4.352041 -0.631254 -1.523548
  C 5.232760 -1.038902 -2.539725
  C 4.909080 -1.571636 -3.865142
  C 3.441473 -1.720063 -4.239238
  C 3.284984 -2.285803 -5.647645
  H 6.288565 -0.953426 -2.324778
  H 0.228851 1.003230 2.554378
  H 0.166973 -0.380674 1.409428
  H 0.165036 1.211165 0.770482
  H 3.672267 1.642420 1.830741
  H 3.672792 0.044814 2.471614
  H 2.137891 -0.835983 -2.029750
  H 4.853561 -0.271566 -0.626832
  H 5.409334 -2.545443 -3.959733
  H 5.411261 -0.935111 -4.606819
  H 2.956682 -0.743517 -4.194981
  H 2.954544 -2.393401 -3.531982
  H 3.748991 -1.631510 -6.382128
  H 2.233470 -2.386876 -5.903090
  H 3.746577 -3.267556 -5.724716
 25
 147.983156
  C 0.545762 0.658630 1.694473
  C 1.961740 0.582617 1.502862
  C 2.989932 0.952746 2.426183
  H 2.655497 1.341278 3.395738
  C 3.046170 -0.642463 -1.549845
  C 4.367221 -0.649400 -1.571726
  C 5.253442 -1.055912 -2.584428
  C 4.932452 -1.588496 -3.907662
  C 3.465207 -1.738133 -4.284308
  C 3.310738 -2.304962 -5.693277
  H 6.309190 -0.969010 -2.365678
  H 0.205665 1.046684 2.663241
  H 0.130428 -0.337654 1.517345
  H 0.128994 1.256109 0.878552
  H 3.637248 1.681044 1.930538
  H 3.637100 0.083568 2.570738
  H 2.150510 -0.852814 -2.075644
  H 4.864116 -0.288398 -0.671754
  H 5.434549 -2.561538 -4.001114
  H 5.436536 -0.952418 -4.648540
  H 2.979460 -0.761544 -4.240774
  H 2.977349 -2.411308 -3.576852
  H 3.775134 -1.650769 -6.427807
  H 2.259378 -2.406663 -5.949881
  H 3.772733 -3.286782 -5.769413
