 17
 0.000000
  H 1.413321 0.178145 0.494132
  C 2.482194 0.132653 0.380989
  H 3.102836 0.460863 1.197697
  C 3.022557 -0.334135 -0.781168
  C 4.409098 -0.410402 -0.971502
  C 5.112723 -0.862335 -2.098488
  C 4.619822 -1.382816 -3.396039
  C 3.135677 -1.503658 -3.697294
  H 3.017630 -1.905525 -4.699030
  O 6.421589 -0.848845 -2.065170
  H 2.368344 -0.651988 -1.572830
  H 5.015816 -0.075176 -0.136582
  H 5.089801 -2.366316 -3.520823
  H 5.089908 -0.758392 -4.166013
  H 2.643031 -0.535276 -3.669757
  H 2.642999 -2.184525 -3.008113
  H 6.820347 -0.517186 -1.236286
 17
 0.046253
  H 1.421101 0.237157 0.496756
  C 2.478438 0.082989 0.382602
  H 3.089355 0.186571 1.267935
  C 3.017886 -0.248916 -0.825567
  C 4.403640 -0.413420 -0.979157
  C 5.121180 -0.818015 -2.117406
  C 4.622120 -1.405016 -3.381088
  C 3.136733 -1.504160 -3.680788
  H 3.015356 -1.997112 -4.647034
  O 6.423928 -0.726134 -2.116316
  H 2.370152 -0.353543 -1.675309
  H 4.999098 -0.169095 -0.109864
  H 5.058352 -2.409976 -3.422036
  H 5.128039 -0.871340 -4.192769
  H 2.675880 -0.519715 -3.759470
  H 2.612486 -2.105217 -2.938051
  H 6.831251 -0.381413 -1.296317
 17
 2.156473
  H 1.381836 0.172164 0.386227
  C 2.436050 -0.040558 0.354394
  H 2.944955 -0.140889 1.299609
  C 3.082666 -0.223540 -0.826570
  C 4.478665 -0.327172 -0.946364
  C 5.147120 -0.771808 -2.090030
  C 4.581343 -1.456365 -3.287249
  C 3.104995 -1.451004 -3.646395
  H 2.997032 -1.970133 -4.597311
  O 6.440830 -0.665324 -2.225835
  H 2.516198 -0.264584 -1.747306
  H 5.078638 0.025611 -0.115519
  H 4.900696 -2.502628 -3.179206
  H 5.160282 -1.086699 -4.140564
  H 2.728305 -0.443162 -3.800093
  H 2.499145 -1.990694 -2.924986
  H 6.927206 -0.331729 -1.445475
 17
 2.707857
  H 1.394389 -0.050092 0.468662
  C 2.461803 -0.165743 0.397070
  H 3.007924 -0.273003 1.320882
  C 3.083617 -0.231558 -0.806804
  C 4.481116 -0.262585 -0.973949
  C 5.132865 -0.758091 -2.108610
  C 4.546792 -1.598794 -3.189308
  C 3.142956 -1.348298 -3.732354
  H 3.058825 -1.867779 -4.685318
  O 6.407637 -0.583339 -2.306783
  H 2.499063 -0.250247 -1.717243
  H 5.089160 0.175995 -0.191637
  H 4.585782 -2.628512 -2.808399
  H 5.266680 -1.565376 -4.012032
  H 2.974342 -0.292243 -3.927197
  H 2.366063 -1.752214 -3.090268
  H 6.903619 -0.146290 -1.580972
 17
 9.773620
  H 1.352427 -0.214732 0.305223
  C 2.417588 -0.371064 0.309868
  H 2.851976 -0.710019 1.237253
  C 3.159868 -0.185501 -0.792351
  C 4.560030 -0.097197 -0.973636
  C 5.165935 -0.696667 -2.068900
  C 4.481931 -1.602568 -3.057938
  C 3.101270 -1.275877 -3.630345
  H 3.012435 -1.848144 -4.559638
  O 6.423736 -0.599803 -2.396708
  H 2.655236 -0.207122 -1.770273
  H 5.136015 0.538116 -0.314785
  H 4.435440 -2.589226 -2.583763
  H 5.187179 -1.682951 -3.887818
  H 3.019747 -0.240210 -3.943168
  H 2.276465 -1.645421 -3.032565
  H 7.000116 -0.145424 -1.749702
 17
 27.303887
  H 1.328062 -0.245574 -0.025987
  C 2.374987 -0.456969 0.129070
  H 2.605069 -1.022359 1.013993
  C 3.301864 -0.148239 -0.772881
  C 4.688915 -0.032362 -0.964917
  C 5.251570 -0.664279 -2.038659
  C 4.458650 -1.578158 -2.959886
  C 3.060212 -1.166688 -3.414401
  H 2.897711 -1.815684 -4.305428
  O 6.490015 -0.664503 -2.460006
  H 2.884839 -0.156937 -1.891377
  H 5.271717 0.605400 -0.301279
  H 4.357975 -2.526997 -2.422690
  H 5.097644 -1.767723 -3.818959
  H 3.021140 -0.208313 -3.930512
  H 2.229010 -1.594119 -2.858367
  H 7.099788 -0.121569 -1.924301
 17
 51.573641
  H 1.375388 -0.117996 -0.085509
  C 2.370979 -0.484508 0.121558
  H 2.449834 -1.101128 1.010226
  C 3.394766 -0.217264 -0.633540
  C 4.715791 -0.086646 -0.972448
  C 5.270428 -0.739689 -2.047154
  C 4.464460 -1.653616 -2.921280
  C 3.071657 -1.065032 -3.295162
  H 2.777544 -1.655407 -4.198249
  O 6.544790 -0.595954 -2.459076
  H 2.901443 -0.372081 -2.280362
  H 5.297881 0.646286 -0.428266
  H 4.336168 -2.618755 -2.426334
  H 5.073509 -1.821202 -3.805704
  H 3.127802 -0.127188 -3.877043
  H 2.191779 -1.533544 -2.792352
  H 7.064833 -0.027858 -1.872257
 17
 53.856235
  H 1.467203 0.079334 0.015719
  C 2.382711 -0.463758 0.208182
  H 2.311536 -1.198735 1.002375
  C 3.479799 -0.252352 -0.441876
  C 4.739945 -0.137243 -0.912043
  C 5.246287 -0.754540 -2.044751
  C 4.444837 -1.660801 -2.930543
  C 3.079945 -1.046994 -3.342288
  H 2.713556 -1.626552 -4.225000
  O 6.526687 -0.580868 -2.469834
  H 2.852860 -0.280394 -2.535917
  H 5.384608 0.547115 -0.371109
  H 4.289625 -2.614030 -2.422638
  H 5.071789 -1.856059 -3.799800
  H 3.203216 -0.175360 -4.025227
  H 2.204535 -1.536424 -2.832706
  H 7.037630 -0.027194 -1.864203
 17
 54.071556
  H 1.516222 0.096483 0.054686
  C 2.379023 -0.540242 0.226035
  H 2.212852 -1.345988 0.935080
  C 3.522947 -0.339906 -0.335416
  C 4.756694 -0.183130 -0.845745
  C 5.226545 -0.741768 -2.024421
  C 4.413536 -1.651944 -2.895228
  C 3.095875 -1.003771 -3.398070
  H 2.650430 -1.660205 -4.184367
  O 6.497117 -0.535761 -2.484850
  H 2.957577 -0.033784 -2.846701
  H 5.428222 0.451313 -0.278375
  H 4.191982 -2.561817 -2.335964
  H 5.056959 -1.929537 -3.727555
  H 3.294437 -0.303468 -4.251149
  H 2.225321 -1.311864 -2.764723
  H 7.019781 -0.003516 -1.871197
 17
 55.174224
  H 1.538787 0.094637 0.131410
  C 2.368535 -0.590938 0.249005
  H 2.161678 -1.448536 0.878030
  C 3.525571 -0.388687 -0.284823
  C 4.755411 -0.223417 -0.796999
  C 5.197793 -0.738113 -2.008138
  C 4.379729 -1.661059 -2.861711
  C 3.094962 -1.003965 -3.431357
  H 2.650896 -1.725464 -4.144658
  O 6.449947 -0.503053 -2.503962
  H 3.247378 0.105234 -3.213509
  H 5.449312 0.360361 -0.201610
  H 4.099573 -2.528684 -2.260146
  H 5.024271 -2.003035 -3.673058
  H 3.240995 -0.360640 -4.371698
  H 2.275601 -0.995833 -2.689434
  H 6.994650 -0.003090 -1.882807
 17
 61.949743
  H 1.540392 0.196224 0.007578
  C 2.332023 -0.523618 0.168087
  H 2.058127 -1.376043 0.776603
  C 3.516659 -0.376022 -0.318363
  C 4.772126 -0.253401 -0.768983
  C 5.234572 -0.770478 -1.976109
  C 4.423491 -1.655710 -2.852541
  C 3.010338 -1.005308 -3.430102
  H 2.827662 -1.809048 -4.145486
  O 6.490423 -0.532393 -2.459595
  H 3.700461 -0.115456 -3.367005
  H 5.461940 0.303556 -0.146304
  H 4.080392 -2.529598 -2.303422
  H 5.038899 -1.951001 -3.698525
  H 2.655635 -0.191704 -4.147843
  H 2.300306 -1.015232 -2.604653
  H 7.028269 -0.027914 -1.836191
 17
 57.723869
  H 1.558809 0.120754 -0.036073
  C 2.353824 -0.595164 0.116161
  H 2.117549 -1.402574 0.793628
  C 3.539178 -0.410444 -0.333647
  C 4.793741 -0.239525 -0.740948
  C 5.311534 -0.796526 -1.926010
  C 4.547358 -1.646790 -2.770280
  C 2.829024 -0.848779 -3.592196
  H 2.779247 -1.757378 -4.175314
  O 6.561121 -0.575193 -2.328153
  H 3.777244 -0.313702 -3.430872
  H 5.462680 0.314490 -0.088786
  H 4.067909 -2.456522 -2.238644
  H 5.143861 -2.009400 -3.604909
  H 2.404711 -0.149724 -4.344771
  H 2.165466 -0.852106 -2.743201
  H 7.073852 -0.033045 -1.698373
 17
 45.898933
  H 1.574381 0.018414 -0.243011
  C 2.374458 -0.589843 0.149325
  H 2.068267 -1.345417 0.870972
  C 3.574560 -0.509846 -0.274713
  C 4.824951 -0.301899 -0.678352
  C 5.369770 -0.852324 -1.886389
  C 4.641051 -1.735528 -2.715623
  C 2.670492 -0.762232 -3.698795
  H 2.541835 -1.683493 -4.274993
  O 6.546097 -0.465673 -2.338591
  H 3.703060 -0.609623 -3.403948
  H 5.430757 0.396429 -0.106787
  H 4.096675 -2.571332 -2.255081
  H 5.198050 -2.019179 -3.612518
  H 2.401322 0.058999 -4.379405
  H 2.043705 -0.735324 -2.838081
  H 7.011334 0.172557 -1.758027
 17
 39.838005
  H 1.567791 -0.081813 -0.080048
  C 2.441941 -0.648879 0.205361
  H 2.266282 -1.425837 0.933957
  C 3.606021 -0.409389 -0.263012
  C 4.831140 -0.169213 -0.707541
  C 5.396002 -0.850310 -1.825706
  C 4.657040 -1.760547 -2.607561
  C 2.658598 -0.735565 -3.825223
  H 2.476262 -1.676750 -4.334909
  O 6.619621 -0.583872 -2.245118
  H 3.688395 -0.811078 -3.382159
  H 5.441331 0.550858 -0.170773
  H 3.991914 -2.450910 -2.117930
  H 5.190674 -2.166775 -3.457228
  H 2.622451 0.051540 -4.567621
  H 1.944622 -0.584800 -3.030299
  H 7.092913 0.072750 -1.710604
 17
 36.635935
  H 1.602578 -0.151229 -0.081049
  C 2.474568 -0.702046 0.235613
  H 2.284931 -1.480122 0.961789
  C 3.645825 -0.460872 -0.213738
  C 4.868121 -0.194915 -0.666828
  C 5.413444 -0.821187 -1.828442
  C 4.701073 -1.804492 -2.529740
  C 2.628040 -0.727222 -3.901426
  H 2.261194 -1.613462 -4.402941
  O 6.583334 -0.473034 -2.309827
  H 3.554410 -1.023878 -3.324908
  H 5.467893 0.528814 -0.134539
  H 3.971553 -2.397120 -1.997592
  H 5.202270 -2.269917 -3.367710
  H 2.896821 0.036110 -4.620623
  H 1.905780 -0.361383 -3.192780
  H 7.031165 0.235364 -1.811674
