 20
 0.000000
  C 1.015480 0.112505 0.334190
  C 2.491508 0.118946 0.340872
  C 3.214577 0.597707 1.534250
  H 2.539252 0.912634 2.320632
  C 3.148647 -0.337316 -0.793749
  C 4.531173 -0.399987 -0.943682
  C 5.194112 -0.856350 -2.078598
  C 4.545244 -1.351911 -3.308877
  H 3.466537 -1.339090 -3.276084
  O 6.503619 -0.877328 -2.132911
  H 0.591591 0.475309 1.264893
  H 0.646494 -0.897867 0.149839
  H 0.639045 0.724018 -0.487245
  H 3.865035 1.433939 1.273481
  H 3.866005 -0.186401 1.923131
  H 2.529020 -0.666649 -1.613647
  H 5.142243 -0.066003 -0.116378
  H 4.896028 -2.365912 -3.505058
  H 4.895487 -0.756483 -4.152910
  H 6.951597 -0.553956 -1.330080
 20
 0.665922
  C 1.026038 0.284558 0.281627
  C 2.487124 0.093569 0.349940
  C 3.202290 0.379486 1.606421
  H 2.531091 0.751014 2.373864
  C 3.140977 -0.354825 -0.791186
  C 4.521321 -0.346101 -0.972356
  C 5.188222 -0.774594 -2.118958
  C 4.569745 -1.514015 -3.235226
  H 3.512055 -1.677585 -3.101018
  O 6.472432 -0.559968 -2.274276
  H 0.627308 0.724165 1.185377
  H 0.522267 -0.668155 0.101294
  H 0.781001 0.920888 -0.569018
  H 3.993787 1.113079 1.449875
  H 3.689576 -0.524686 1.974088
  H 2.515588 -0.678358 -1.610953
  H 5.129116 0.094474 -0.191674
  H 5.072683 -2.473071 -3.339007
  H 4.748909 -0.980440 -4.165713
  H 6.904102 -0.084994 -1.539133
 20
 3.144566
  C 1.067304 0.444785 0.233160
  C 2.483865 0.056884 0.369644
  C 3.169507 0.217257 1.662130
  H 2.539524 0.707483 2.397326
  C 3.138704 -0.423751 -0.759930
  C 4.499606 -0.292387 -1.003690
  C 5.160173 -0.707115 -2.158145
  C 4.600685 -1.632753 -3.165018
  H 3.583882 -1.929603 -2.946524
  O 6.377372 -0.299043 -2.428408
  H 0.683193 0.910995 1.134571
  H 0.441801 -0.412759 -0.016314
  H 0.982086 1.141065 -0.602399
  H 4.101004 0.773346 1.559487
  H 3.452411 -0.765429 2.044166
  H 2.513590 -0.827416 -1.544713
  H 5.082036 0.276777 -0.290550
  H 5.231598 -2.520663 -3.208948
  H 4.655328 -1.176037 -4.152418
  H 6.770771 0.294003 -1.761586
 20
 7.312251
  C 1.142904 0.574525 0.193792
  C 2.484615 0.001281 0.401182
  C 3.141908 0.087109 1.712818
  H 2.556721 0.651583 2.428465
  C 3.143644 -0.533698 -0.711232
  C 4.464302 -0.262245 -1.032434
  C 5.128913 -0.671905 -2.182806
  C 4.640372 -1.712344 -3.112948
  H 3.669148 -2.104597 -2.833116
  O 6.271923 -0.129158 -2.539939
  H 0.787574 1.110440 1.076208
  H 0.410118 -0.183682 -0.077722
  H 1.213597 1.257169 -0.653011
  H 4.143890 0.513998 1.636868
  H 3.289481 -0.924063 2.100155
  H 2.530096 -1.062746 -1.431015
  H 4.998451 0.420458 -0.381876
  H 5.363045 -2.529309 -3.133895
  H 4.607183 -1.311539 -4.125585
  H 6.620954 0.535722 -1.919228
 20
 12.724037
  C 1.229761 0.696584 0.157881
  C 2.490693 -0.013369 0.426067
  C 3.110351 -0.001845 1.757274
  H 2.554067 0.599942 2.468635
  C 3.152484 -0.598945 -0.669960
  C 4.414162 -0.219432 -1.072935
  C 5.085055 -0.650808 -2.213797
  C 4.659436 -1.782465 -3.066534
  H 3.728599 -2.226661 -2.738606
  O 6.166518 -0.034750 -2.642075
  H 0.904654 1.280400 1.011987
  H 0.423888 0.020684 -0.132413
  H 1.417281 1.346108 -0.698924
  H 4.147430 0.334480 1.713184
  H 3.161935 -1.028487 2.126976
  H 2.565044 -1.254351 -1.300855
  H 4.898033 0.556507 -0.491692
  H 5.439886 -2.543086 -3.056251
  H 4.573035 -1.449131 -4.100027
  H 6.474581 0.692155 -2.069876
 20
 19.843276
  C 1.322956 0.851077 0.168663
  C 2.508051 0.025786 0.436652
  C 3.064063 -0.117445 1.782719
  H 2.531066 0.477945 2.514117
  C 3.160524 -0.593646 -0.667624
  C 4.349521 -0.135454 -1.170864
  C 5.048175 -0.637781 -2.269870
  C 4.690258 -1.868027 -3.008027
  H 3.776852 -2.318853 -2.647667
  O 6.098343 -0.006853 -2.754989
  H 1.029416 1.434975 1.036262
  H 0.467205 0.239779 -0.137711
  H 1.551573 1.504616 -0.674706
  H 4.126187 0.131710 1.801952
  H 3.016579 -1.169228 2.073281
  H 2.641695 -1.412490 -1.144080
  H 4.766052 0.746952 -0.697346
  H 5.504759 -2.587443 -2.916650
  H 4.601043 -1.641213 -4.070003
  H 6.350967 0.791522 -2.263044
 20
 27.940937
  C 1.471776 0.993908 0.166389
  C 2.541417 0.043200 0.474569
  C 2.976919 -0.229419 1.845336
  H 2.450794 0.379627 2.572599
  C 3.221159 -0.614134 -0.625497
  C 4.308305 -0.075626 -1.250373
  C 4.994747 -0.626286 -2.342278
  C 4.686057 -1.927719 -2.974792
  H 3.811958 -2.402859 -2.550225
  O 5.996380 0.021148 -2.907482
  H 1.191703 1.589432 1.030346
  H 0.585063 0.452112 -0.176959
  H 1.755506 1.632440 -0.670510
  H 4.054995 -0.077510 1.938019
  H 2.823577 -1.284829 2.084001
  H 2.796166 -1.550627 -0.963179
  H 4.678597 0.868939 -0.874046
  H 5.544655 -2.590511 -2.865831
  H 4.545216 -1.785307 -4.046382
  H 6.221601 0.866612 -2.478925
 20
 19.853648
  C 1.608445 1.097323 0.159092
  C 2.590891 0.053327 0.477928
  C 2.878768 -0.321745 1.869568
  H 2.328192 0.291392 2.578290
  C 3.286108 -0.596865 -0.584465
  C 4.272698 -0.001219 -1.337640
  C 4.937519 -0.598001 -2.408633
  C 4.655812 -1.947104 -2.951520
  H 3.808375 -2.425426 -2.479185
  O 5.901250 0.036797 -3.046142
  H 1.332491 1.687534 1.028769
  H 0.710392 0.593004 -0.207907
  H 1.914730 1.736873 -0.666658
  H 3.951713 -0.238184 2.052293
  H 2.641870 -1.373533 2.055276
  H 2.999347 -1.620756 -0.787135
  H 4.584264 0.994560 -1.048585
  H 5.541446 -2.572239 -2.828643
  H 4.482075 -1.871627 -4.024718
  H 6.113597 0.914877 -2.683860
 20
 12.547063
  C 1.787646 1.139514 0.150420
  C 2.652640 0.010426 0.521578
  C 2.786977 -0.403370 1.926838
  H 2.214254 0.233258 2.592577
  C 3.392341 -0.640285 -0.484990
  C 4.251852 0.007808 -1.355915
  C 4.883503 -0.587463 -2.440984
  C 4.631706 -1.961046 -2.931746
  H 3.840612 -2.465670 -2.394545
  O 5.779186 0.067778 -3.149881
  H 1.538595 1.777149 0.992849
  H 0.853501 0.712723 -0.231462
  H 2.182189 1.707866 -0.689183
  H 3.839664 -0.385434 2.208925
  H 2.468641 -1.438897 2.069185
  H 3.247443 -1.708505 -0.585947
  H 4.505543 1.034239 -1.127395
  H 5.552105 -2.540078 -2.857465
  H 4.382874 -1.919980 -3.991006
  H 5.982418 0.960955 -2.819221
 20
 6.596801
  C 1.936135 1.215649 0.191174
  C 2.718176 0.021732 0.540213
  C 2.695991 -0.498668 1.919169
  H 2.111096 0.132225 2.580261
  C 3.480747 -0.618299 -0.437261
  C 4.235076 0.036163 -1.405865
  C 4.849470 -0.588795 -2.485718
  C 4.623618 -1.992495 -2.896083
  H 3.868203 -2.490517 -2.303361
  O 5.680264 0.063321 -3.269493
  H 1.747170 1.862949 1.042139
  H 0.963156 0.863752 -0.167930
  H 2.363485 1.752082 -0.651518
  H 3.714609 -0.581044 2.297229
  H 2.288953 -1.511443 1.949005
  H 3.486667 -1.700249 -0.422899
  H 4.430427 1.089791 -1.257276
  H 5.564054 -2.540148 -2.831889
  H 4.333176 -2.011734 -3.945412
  H 5.859447 0.982112 -2.998951
 20
 6.349020
  C 2.025349 1.184200 0.147487
  C 2.766933 -0.011940 0.574731
  C 2.630253 -0.526651 1.949069
  H 2.117721 0.180591 2.593155
  C 3.582928 -0.654624 -0.349911
  C 4.257497 0.023165 -1.367619
  C 4.838348 -0.567702 -2.482893
  C 4.625632 -1.972966 -2.894601
  H 3.908570 -2.489177 -2.270383
  O 5.590698 0.122075 -3.311010
  H 1.905032 1.922438 0.933646
  H 1.023572 0.852832 -0.145368
  H 2.460330 1.576464 -0.768991
  H 3.605727 -0.770472 2.365664
  H 2.062485 -1.460026 1.948811
  H 3.666588 -1.730692 -0.282382
  H 4.476559 1.069240 -1.193486
  H 5.580205 -2.499286 -2.872135
  H 4.291845 -1.995116 -3.930570
  H 5.747982 1.047209 -3.045693
