 16
 0.000000
  C 1.021270 0.128842 0.372914
  C 2.484540 0.134287 0.386073
  C 3.214292 0.607234 1.561844
  H 2.544276 0.924527 2.351805
  C 3.143526 -0.325270 -0.757584
  C 4.539642 -0.393141 -0.927965
  C 5.085894 -0.856269 -2.082810
  H 4.463631 -1.182768 -2.896446
  H 6.150465 -0.912015 -2.222288
  H 0.590612 0.500535 1.297594
  H 0.649769 -0.879415 0.178833
  H 0.649779 0.722391 -0.464841
  H 3.876179 1.433611 1.297131
  H 3.876459 -0.172249 1.942867
  H 2.523080 -0.655955 -1.580037
  H 5.188806 -0.071697 -0.127036
 16
 0.192749
  C 1.024851 0.123677 0.373441
  C 2.488122 0.127572 0.369941
  C 3.210788 0.604850 1.549931
  H 2.537853 0.860277 2.361287
  C 3.148432 -0.313921 -0.779844
  C 4.537309 -0.498605 -0.913198
  C 5.107390 -0.806935 -2.107072
  H 4.514579 -0.927996 -3.000144
  H 6.172324 -0.926333 -2.205390
  H 0.615871 0.762106 1.149401
  H 0.672041 -0.895176 0.563471
  H 0.611467 0.398287 -0.595587
  H 3.807438 1.483486 1.295175
  H 3.935175 -0.136078 1.893146
  H 2.529494 -0.535393 -1.639663
  H 5.165217 -0.395289 -0.041758
 16
 0.721832
  C 1.023310 0.132347 0.369481
  C 2.485420 0.100188 0.358729
  C 3.216698 0.585370 1.531136
  H 2.557181 0.765553 2.374395
  C 3.145046 -0.354885 -0.784225
  C 4.528394 -0.596881 -0.900362
  C 5.133522 -0.725942 -2.109780
  H 4.576031 -0.640153 -3.028407
  H 6.194583 -0.886138 -2.191999
  H 0.645635 0.991094 0.920491
  H 0.662738 -0.747919 0.913122
  H 0.588904 0.095588 -0.625882
  H 3.721088 1.523742 1.285230
  H 4.014983 -0.099546 1.816612
  H 2.529178 -0.546937 -1.653736
  H 5.122637 -0.679902 -0.000762
 16
 3.440344
  C 1.024043 0.147612 0.378114
  C 2.485452 0.078672 0.348370
  C 3.246129 0.623168 1.474741
  H 2.631928 0.727729 2.364606
  C 3.118513 -0.435790 -0.781140
  C 4.495756 -0.739846 -0.900474
  C 5.172647 -0.625740 -2.067393
  H 4.699901 -0.234564 -2.953439
  H 6.219277 -0.866896 -2.134044
  H 0.681239 1.096564 0.785690
  H 0.652351 -0.615084 1.069869
  H 0.566446 -0.031110 -0.590399
  H 3.612289 1.620058 1.212314
  H 4.138337 0.035647 1.683683
  H 2.467106 -0.677661 -1.611107
  H 5.020874 -1.074841 -0.014187
 16
 9.819628
  C 1.013038 0.071590 0.413210
  C 2.478518 0.064187 0.351692
  C 3.260517 0.716071 1.403530
  H 2.678009 0.857154 2.310037
  C 3.076494 -0.495442 -0.768511
  C 4.424811 -0.912098 -0.950546
  C 5.200326 -0.508211 -1.971517
  H 4.840775 0.193954 -2.705285
  H 6.230516 -0.809422 -2.043210
  H 0.655491 1.038343 0.748629
  H 0.671605 -0.666378 1.142280
  H 0.536572 -0.141868 -0.539903
  H 3.581949 1.703994 1.062688
  H 4.178152 0.164425 1.607352
  H 2.324484 -0.679911 -1.526834
  H 4.825880 -1.595889 -0.208958
 16
 19.451904
  C 1.055413 0.007792 0.406329
  C 2.524525 0.065576 0.374657
  C 3.256639 0.786025 1.418894
  H 2.673050 0.852423 2.333286
  C 3.128197 -0.530573 -0.726029
  C 4.440987 -1.001467 -1.027031
  C 5.259557 -0.472702 -1.966214
  H 4.992440 0.418354 -2.509901
  H 6.236781 -0.884416 -2.149484
  H 0.673966 0.986376 0.648317
  H 0.715627 -0.679850 1.182766
  H 0.580677 -0.239647 -0.537807
  H 3.458501 1.810942 1.093242
  H 4.226277 0.325351 1.605654
  H 2.263783 -0.715554 -1.365087
  H 4.782667 -1.850578 -0.437823
 16
 34.197884
  C 1.119157 -0.006526 0.328004
  C 2.592569 0.042496 0.468086
  C 3.188117 0.829196 1.551577
  H 2.472899 0.945846 2.363167
  C 3.281766 -0.533469 -0.575842
  C 4.540380 -0.997364 -1.023107
  C 5.176362 -0.484033 -2.081662
  H 4.741554 0.309699 -2.667878
  H 6.141974 -0.850653 -2.379852
  H 0.735970 0.970824 0.537588
  H 0.680227 -0.720697 1.022258
  H 0.724079 -0.176806 -0.672587
  H 3.456667 1.827095 1.201168
  H 4.102182 0.360406 1.915025
  H 2.346499 -0.701452 -1.119369
  H 4.936133 -1.875466 -0.533691
 16
 62.416622
  C 1.171976 -0.075462 0.255228
  C 2.669498 0.102837 0.461600
  C 3.147121 0.917688 1.622072
  H 2.380117 0.954890 2.390594
  C 3.400935 -0.460852 -0.477925
  C 4.527506 -1.021698 -1.066070
  C 5.166074 -0.491658 -2.137709
  H 4.851689 0.440144 -2.576966
  H 6.035006 -0.965360 -2.557043
  H 0.706282 0.874504 0.467577
  H 0.780258 -0.840507 0.925088
  H 0.748029 -0.228403 -0.764025
  H 3.370975 1.934043 1.301740
  H 4.054538 0.493966 2.044366
  H 2.076312 -0.660474 -0.902052
  H 4.858410 -1.975990 -0.668752
 16
 69.521629
  C 1.200319 -0.077880 0.213488
  C 2.710532 0.088504 0.469493
  C 3.149375 0.908103 1.645523
  H 2.360246 0.947444 2.392041
  C 3.472653 -0.467842 -0.435375
  C 4.564453 -1.015382 -1.051386
  C 5.168154 -0.493968 -2.156009
  H 4.835004 0.428873 -2.597229
  H 6.019039 -0.973733 -2.602233
  H 0.726913 0.886112 0.438390
  H 0.792260 -0.840164 0.880603
  H 0.728423 -0.204691 -0.819679
  H 3.381377 1.923917 1.329922
  H 4.043625 0.488085 2.097669
  H 1.836541 -0.633677 -0.828358
  H 4.911177 -1.967921 -0.663940
 16
 65.961601
  C 1.199575 -0.075654 0.196280
  C 2.739019 0.062591 0.432250
  C 3.145010 0.891952 1.617881
  H 2.349710 0.914203 2.356762
  C 3.550782 -0.483523 -0.409922
  C 4.612536 -1.029124 -1.045028
  C 5.217425 -0.495265 -2.152089
  H 4.898010 0.442610 -2.570237
  H 6.052777 -0.984139 -2.617238
  H 0.797631 0.924410 0.426873
  H 0.797577 -0.796082 0.914579
  H 0.559193 -0.136320 -0.779629
  H 3.364069 1.912596 1.307717
  H 4.041227 0.487660 2.080847
  H 1.574089 -0.645405 -0.761684
  H 4.952526 -1.993636 -0.682012
 16
 63.006892
  C 1.203882 -0.101218 0.191972
  C 2.746544 0.035475 0.398661
  C 3.122749 0.883115 1.590202
  H 2.323032 0.897563 2.325114
  C 3.621808 -0.497131 -0.390313
  C 4.662873 -1.041726 -1.053994
  C 5.268092 -0.482964 -2.148438
  H 4.955641 0.469271 -2.537230
  H 6.092884 -0.971581 -2.635964
  H 0.884294 0.929309 0.409729
  H 0.799870 -0.760272 0.967030
  H 0.449287 0.005095 -0.698663
  H 3.332018 1.904164 1.274924
  H 4.020392 0.497658 2.067243
  H 1.359423 -0.758915 -0.734909
  H 5.008366 -2.010969 -0.710014
 16
 56.356547
  C 1.238980 -0.076236 0.094677
  C 2.745976 0.032156 0.367289
  C 3.101783 0.877719 1.568119
  H 2.550885 0.549527 2.447580
  C 3.643693 -0.538119 -0.370929
  C 4.659912 -1.095739 -1.058211
  C 5.296940 -0.507433 -2.123517
  H 5.025105 0.475117 -2.467255
  H 6.098871 -1.006545 -2.634308
  H 0.728803 0.830133 0.518611
  H 0.743243 -0.614472 0.942648
  H 0.987122 0.426620 -0.879137
  H 2.867977 1.922465 1.374511
  H 4.161931 0.812199 1.788779
  H 1.024129 -1.002172 -0.499538
  H 4.975805 -2.088346 -0.753969
