 29
 0.000000
  C 0.975790 0.137332 0.393142
  C 2.453972 0.138831 0.396445
  C 3.235887 0.609601 1.567949
  C 2.454651 1.098519 2.785050
  H 3.117958 1.411577 3.564099
  C 3.074760 -0.323868 -0.755623
  C 4.452396 -0.411652 -0.974602
  C 5.123831 -0.863395 -2.100714
  C 4.621920 -1.386396 -3.404454
  C 3.129954 -1.502980 -3.695876
  C 2.901042 -2.064737 -5.096300
  O 6.448567 -0.861790 -2.097024
  H 0.536390 0.506813 1.312870
  H 0.606624 -0.875729 0.225913
  H 0.606339 0.752985 -0.428456
  H 3.892013 1.422462 1.236076
  H 3.892206 -0.206765 1.890660
  H 1.816409 0.300727 3.170305
  H 1.816264 1.941012 2.511316
  H 2.419633 -0.642347 -1.548686
  H 5.073532 -0.080521 -0.149771
  H 5.075895 -2.376004 -3.531813
  H 5.076265 -0.759449 -4.180462
  H 2.655656 -0.522022 -3.641480
  H 2.655252 -2.174151 -2.978669
  H 3.338077 -1.417822 -5.854009
  H 1.834884 -2.144599 -5.296051
  H 3.337677 -3.056130 -5.196764
  H 6.820588 -0.526463 -1.260938
 29
 0.000000
  C 1.006367 0.136583 0.391277
  C 2.484495 0.141660 0.403483
  C 3.258199 0.614309 1.579673
  C 2.468466 1.101322 2.792045
  H 3.126310 1.415977 3.575074
  C 3.128360 -0.330550 -0.772280
  C 4.438871 -0.423874 -1.005080
  C 5.075824 -0.858271 -2.087959
  C 4.599586 -1.384594 -3.399971
  C 3.113581 -1.511285 -3.716568
  C 2.912195 -2.074504 -5.120633
  O 6.339317 -0.836872 -2.034926
  H 0.560543 0.504990 1.308341
  H 0.640668 -0.877367 0.221832
  H 0.640382 0.751349 -0.432533
  H 3.914343 1.428759 1.251754
  H 3.914537 -0.200469 1.906334
  H 1.829848 0.301984 3.173453
  H 1.829702 1.942270 2.514468
  H 2.478793 -0.650607 -1.569273
  H 5.071157 -0.095679 -0.187578
  H 5.062356 -2.371091 -3.519581
  H 5.062720 -0.754534 -4.168224
  H 2.631783 -0.533571 -3.670254
  H 2.631387 -2.185703 -3.007449
  H 3.357577 -1.424595 -5.870884
  H 1.850130 -2.161589 -5.338376
  H 3.357186 -3.062906 -5.213645
  H 6.659746 -0.478106 -1.140390
 29
 0.000000
  C 1.036597 0.135979 0.389768
  C 2.514594 0.144981 0.411742
  C 3.279250 0.619668 1.593019
  C 2.480230 1.104567 2.800144
  H 3.132048 1.420958 3.587503
  C 3.184155 -0.337533 -0.789693
  C 4.429625 -0.436038 -1.035413
  C 5.032358 -0.854233 -2.077907
  C 4.579697 -1.383436 -3.397091
  C 3.099567 -1.519319 -3.736583
  C 2.923371 -2.083711 -5.143565
  O 6.233661 -0.815684 -1.982126
  H 0.583744 0.503189 1.303864
  H 0.674719 -0.878936 0.217914
  H 0.674433 0.749781 -0.436447
  H 3.935382 1.435862 1.269440
  H 3.935577 -0.193369 1.924015
  H 1.841230 0.303531 3.177326
  H 1.841083 1.943820 2.518347
  H 2.540722 -0.659306 -1.590959
  H 5.073975 -0.111110 -0.226064
  H 5.050365 -2.367041 -3.509498
  H 5.050722 -0.750481 -4.158136
  H 2.611060 -0.544613 -3.697757
  H 2.610673 -2.196746 -3.034958
  H 3.376245 -1.431018 -5.886884
  H 1.865351 -2.177366 -5.377671
  H 3.375863 -3.069331 -5.229651
  H 6.495712 -0.432827 -1.027517
 29
 0.000000
  C 1.066230 0.135602 0.388818
  C 2.543995 0.148960 0.421638
  C 3.298560 0.625880 1.608492
  C 2.489277 1.108404 2.809720
  H 3.134364 1.426702 3.601839
  C 3.242520 -0.344818 -0.807861
  C 4.425458 -0.448067 -1.065408
  C 4.994398 -0.851444 -2.070967
  C 4.562604 -1.383062 -3.396164
  C 3.087986 -1.527010 -3.755736
  C 2.934012 -2.092303 -5.164965
  O 6.132850 -0.798500 -1.939303
  H 0.605601 0.501462 1.299565
  H 0.708616 -0.880373 0.214319
  H 0.708331 0.748347 -0.440036
  H 3.954641 1.444010 1.289732
  H 3.954834 -0.185224 1.944300
  H 1.849889 0.305481 3.182207
  H 1.849744 1.945773 2.523235
  H 2.605935 -0.668475 -1.613826
  H 5.082770 -0.126756 -0.265085
  H 5.040118 -2.364079 -3.502126
  H 5.040468 -0.747518 -4.150760
  H 2.593683 -0.554985 -3.723590
  H 2.593305 -2.207121 -3.060795
  H 3.393379 -1.437122 -5.902084
  H 1.879798 -2.191724 -5.413426
  H 3.393006 -3.075436 -5.244856
  H 6.328926 -0.391173 -0.923674
 29
 0.000000
  C 1.094468 0.135768 0.389216
  C 2.571866 0.153957 0.434068
  C 3.315179 0.633320 1.627025
  C 2.494567 1.113172 2.821620
  H 3.132138 1.433563 3.618965
  C 3.303444 -0.352367 -0.826690
  C 4.427405 -0.459865 -1.094825
  C 4.963524 -0.850316 -2.068165
  C 4.548980 -1.383837 -3.398098
  C 3.079139 -1.534403 -3.774146
  C 2.943487 -2.100348 -5.184996
  O 6.039241 -0.785934 -1.907988
  H 0.625244 0.500102 1.296180
  H 0.741610 -0.881368 0.211817
  H 0.741328 0.747354 -0.442531
  H 3.971156 1.453597 1.313612
  H 3.971346 -0.175640 1.968172
  H 1.854795 0.308156 3.188895
  H 1.854652 1.948451 2.529932
  H 2.674504 -0.678091 -1.637809
  H 5.098485 -0.142521 -0.304400
  H 5.032055 -2.362695 -3.498686
  H 5.032397 -0.746133 -4.147316
  H 2.580143 -0.564610 -3.747558
  H 2.579774 -2.216747 -3.084767
  H 3.408124 -1.443090 -5.916946
  H 1.892575 -2.204500 -5.445237
  H 3.407760 -3.081406 -5.259721
  H 6.161647 -0.353999 -0.830994
 29
 0.000000
  C 1.120849 0.136935 0.392103
  C 2.597696 0.160585 0.450558
  C 3.328215 0.642665 1.650307
  C 2.494867 1.119453 2.837292
  H 3.123881 1.442180 3.640472
  C 3.368343 -0.360333 -0.846564
  C 4.436496 -0.471547 -1.123952
  C 4.940831 -0.851360 -2.070775
  C 4.539270 -1.386259 -3.404134
  C 3.073155 -1.541777 -3.792509
  C 2.951264 -2.108159 -5.204439
  O 5.953465 -0.778478 -1.889405
  H 0.641947 0.499511 1.294705
  H 0.773402 -0.881495 0.211472
  H 0.773124 0.747231 -0.442867
  H 3.984014 1.465369 1.342940
  H 3.984200 -0.163872 1.997491
  H 1.854720 0.312068 3.198667
  H 1.854581 1.952367 2.539714
  H 2.748107 -0.688364 -1.663438
  H 5.122233 -0.158575 -0.344435
  H 5.026472 -2.363481 -3.500647
  H 5.026808 -0.746918 -4.149277
  H 2.570685 -0.573674 -3.770125
  H 2.570323 -2.225812 -3.107336
  H 3.419811 -1.449328 -5.932472
  H 1.902932 -2.215852 -5.473493
  H 3.419455 -3.087644 -5.275249
  H 5.993074 -0.321600 -0.750209
 29
 0.000000
  C 1.144084 0.139722 0.399018
  C 2.620139 0.169508 0.472765
  C 3.336185 0.654587 1.680011
  C 2.488612 1.127873 2.858297
  H 3.107929 1.453190 3.667946
  C 3.437565 -0.368745 -0.867547
  C 4.453613 -0.482953 -1.152391
  C 4.928161 -0.855258 -2.080495
  C 4.534255 -1.390949 -3.415819
  C 3.070388 -1.549377 -3.811430
  C 2.956598 -2.115995 -5.223943
  O 5.878490 -0.777000 -1.885715
  H 0.654357 0.500279 1.296609
  H 0.802762 -0.880139 0.214812
  H 0.802491 0.748591 -0.439518
  H 3.991708 1.480019 1.379441
  H 3.991887 -0.149226 2.033981
  H 1.848117 0.317824 3.213035
  H 1.847984 1.958128 2.554092
  H 2.827190 -0.699330 -1.690796
  H 5.154589 -0.174696 -0.384633
  H 5.023868 -2.367201 -3.509918
  H 5.024198 -0.750639 -4.158548
  H 2.565891 -0.582274 -3.791536
  H 2.565537 -2.234411 -3.128745
  H 3.427428 -1.456232 -5.949656
  H 1.909824 -2.225769 -5.498172
  H 3.427078 -3.094549 -5.292432
  H 5.826709 -0.295161 -0.684278
 29
 0.000000
  C 1.162237 0.145286 0.412848
  C 2.637190 0.181918 0.503655
  C 3.336975 0.670272 1.719092
  C 2.473648 1.139580 2.887494
  H 3.082048 1.467739 3.704244
  C 3.512010 -0.377761 -0.890036
  C 4.479988 -0.494098 -1.180175
  C 4.927803 -0.863232 -2.100369
  C 4.534950 -1.399034 -3.435960
  C 3.071393 -1.557866 -3.832564
  C 2.958717 -2.124518 -5.245154
  O 5.818003 -0.782828 -1.900229
  H 0.660497 0.503537 1.304713
  H 0.827802 -0.876140 0.224726
  H 0.827539 0.752594 -0.429594
  H 3.992094 1.498746 1.426105
  H 3.992264 -0.130503 2.080634
  H 1.832858 0.326556 3.234819
  H 1.832733 1.966865 2.575888
  H 2.912732 -0.711149 -1.720282
  H 5.196507 -0.190835 -0.424871
  H 5.024895 -2.375152 -3.529726
  H 5.025220 -0.758591 -4.178359
  H 2.566617 -0.590901 -3.813013
  H 2.566267 -2.243037 -3.150220
  H 3.429857 -1.464627 -5.970550
  H 1.912158 -2.234580 -5.520093
  H 3.429513 -3.102942 -5.313323
  H 5.667120 -0.275660 -0.635632
 29
 0.000000
  C 1.173074 0.154821 0.436562
  C 2.646565 0.198899 0.545932
  C 3.328516 0.690733 1.770074
  C 2.448185 1.155628 2.927505
  H 3.044589 1.486823 3.751845
  C 3.591938 -0.387490 -0.914297
  C 4.516163 -0.504869 -1.207020
  C 4.941607 -0.876476 -2.133370
  C 4.542139 -1.411603 -3.467272
  C 3.076630 -1.567931 -3.857625
  C 2.956956 -2.134388 -5.269720
  O 5.776513 -0.797065 -1.935695
  H 0.658339 0.510497 1.322031
  H 0.846197 -0.868275 0.244266
  H 0.845945 0.760464 -0.410043
  H 3.983080 1.522517 1.485340
  H 3.983239 -0.106737 2.139857
  H 1.807187 0.339363 3.266752
  H 1.807073 1.979677 2.607834
  H 3.004852 -0.723871 -1.752015
  H 5.247940 -0.206702 -0.464418
  H 5.030010 -2.388559 -3.563123
  H 5.030331 -0.771999 -4.211761
  H 2.573596 -0.600103 -3.835924
  H 2.573249 -2.252238 -3.173126
  H 3.426124 -1.475303 -5.997125
  H 1.909043 -2.242659 -5.540188
  H 3.425782 -3.113616 -5.339893
  H 5.521946 -0.263971 -0.606451
 29
 0.000000
  C 1.175310 0.168971 0.471768
  C 2.646922 0.221062 0.601120
  C 3.309513 0.716545 1.834391
  C 2.411040 1.176589 2.979758
  H 2.994393 1.510988 3.812107
  C 3.678295 -0.397994 -0.940481
  C 4.561933 -0.515149 -1.232629
  C 4.969601 -0.895548 -2.180893
  C 4.555741 -1.429162 -3.511013
  C 3.086086 -1.580012 -3.887709
  C 2.951161 -2.145998 -5.298622
  O 5.755661 -0.819776 -1.992271
  H 0.646680 0.521800 1.350163
  H 0.856645 -0.855880 0.275082
  H 0.856408 0.772863 -0.379215
  H 3.963345 1.551893 1.558542
  H 3.963490 -0.077366 2.213046
  H 1.769949 0.356833 3.310300
  H 1.769848 1.997152 2.651395
  H 3.104469 -0.737529 -1.786079
  H 5.308253 -0.222025 -0.502598
  H 5.039050 -2.407931 -3.611383
  H 5.039370 -0.791373 -4.260026
  H 2.586890 -0.610314 -3.861345
  H 2.586544 -2.262445 -3.198541
  H 3.415998 -1.488659 -6.030376
  H 1.900378 -2.250353 -5.559326
  H 3.415657 -3.126969 -5.373137
  H 5.395226 -0.259845 -0.596120
 29
 0.000000
  C 1.168002 0.187849 0.518750
  C 2.637329 0.248247 0.668818
  C 3.279674 0.747406 1.911286
  C 2.362570 1.202312 3.043870
  H 2.932242 1.539961 3.884344
  C 3.769737 -0.408990 -0.967880
  C 4.615681 -0.524625 -1.256227
  C 5.010110 -0.920230 -2.242388
  C 4.574712 -1.451467 -3.566577
  C 3.099106 -1.594059 -3.922691
  C 2.941302 -2.159229 -5.331563
  O 5.756033 -0.850077 -2.067759
  H 0.625065 0.537644 1.389601
  H 0.857934 -0.838776 0.317627
  H 0.857712 0.789971 -0.336659
  H 3.932597 1.586447 1.644649
  H 3.932727 -0.042817 2.299141
  H 1.721527 0.378931 3.365374
  H 1.721441 2.019255 2.706482
  H 3.209806 -0.751722 -1.821467
  H 5.375260 -0.236267 -0.538069
  H 5.051076 -2.432927 -3.673654
  H 5.051395 -0.816373 -4.322305
  H 2.605771 -0.621577 -3.889390
  H 2.605424 -2.273706 -3.226579
  H 3.399547 -1.504480 -6.069771
  H 1.886404 -2.257680 -5.577551
  H 3.399205 -3.142788 -5.412525
  H 5.292683 -0.262423 -0.602492
 29
 0.000000
  C 1.158626 0.197891 0.543749
  C 2.626852 0.261905 0.702836
  C 3.260325 0.762630 1.949223
  C 2.335167 1.215265 3.076152
  H 2.898836 1.554306 3.920107
  C 3.805851 -0.412521 -0.976675
  C 4.637556 -0.527052 -1.262263
  C 5.028513 -0.930793 -2.268702
  C 4.582952 -1.460861 -3.589978
  C 3.104646 -1.599533 -3.936319
  C 2.936023 -2.164271 -5.344113
  O 5.761381 -0.863271 -2.100625
  H 0.609493 0.546339 1.411249
  H 0.852327 -0.829492 0.340730
  H 0.852112 0.799257 -0.313552
  H 3.912806 1.603279 1.686595
  H 3.912928 -0.025987 2.341082
  H 1.694191 0.390305 3.393718
  H 1.694113 2.030631 2.734831
  H 3.252016 -0.756623 -1.833681
  H 5.401695 -0.240371 -0.548284
  H 5.055991 -2.443583 -3.700197
  H 5.056310 -0.827029 -4.348850
  H 2.614126 -0.625744 -3.899763
  H 2.613778 -2.277871 -3.236948
  H 3.391110 -1.510735 -6.085344
  H 1.879261 -2.259919 -5.583115
  H 3.390767 -3.149041 -5.428095
  H 5.257913 -0.263732 -0.605732
 29
 0.000000
  C 1.121326 0.245522 0.662305
  C 2.583641 0.326139 0.862812
  C 3.175919 0.833788 2.126524
  C 2.214219 1.275711 3.226785
  H 2.749930 1.620967 4.086279
  C 4.004297 -0.434724 -1.031975
  C 4.764550 -0.542603 -1.300951
  C 5.136199 -0.994252 -2.426806
  C 4.630078 -1.516726 -3.729150
  C 3.137160 -1.631689 -4.016412
  C 2.903728 -2.193218 -5.416202
  O 5.816256 -0.941448 -2.295388
  H 0.543986 0.587571 1.513884
  H 0.832550 -0.785229 0.450862
  H 0.832371 0.843528 -0.203400
  H 3.825990 1.681822 1.882319
  H 3.826078 0.052548 2.536784
  H 1.573916 0.443485 3.526228
  H 1.573872 2.083821 2.867365
  H 3.478841 -0.784930 -1.904236
  H 5.550880 -0.264383 -0.608044
  H 5.082623 -2.506831 -3.857768
  H 5.082945 -0.890284 -4.506437
  H 2.664079 -0.650213 -3.960701
  H 2.663724 -2.302334 -3.297870
  H 3.339358 -1.546789 -6.175141
  H 1.836918 -2.271922 -5.612979
  H 3.339007 -3.185089 -5.517875
  H 5.127670 -0.287226 -0.664192
