 31
 0.000000
  C 0.904686 0.048754 0.271691
  C 2.396097 0.059154 0.087326
  C 3.238875 -0.012278 1.353362
  C 2.524787 -0.088320 2.700888
  C 3.529318 -0.152928 3.845968
  C 2.991148 0.127374 -1.121652
  C 2.350484 0.204784 -2.493535
  C 0.839679 0.217308 -2.715408
  C 0.522440 0.301430 -4.206252
  C 4.453087 0.132313 -1.209117
  C 5.192032 0.194592 -2.312945
  H 6.270484 0.194341 -2.308442
  H 0.604898 -0.009988 1.312663
  H 0.461352 -0.816528 -0.214296
  H 0.461352 0.963214 -0.113869
  H 3.884859 0.870952 1.383233
  H 3.884861 -0.893264 1.283685
  H 1.892256 -0.977996 2.744625
  H 1.892250 0.790783 2.844433
  H 4.164304 -1.032031 3.756945
  H 3.007909 -0.206732 4.799392
  H 4.164299 0.730608 3.856400
  H 2.740401 -0.643682 -3.066720
  H 2.740401 1.112350 -2.967632
  H 0.385649 1.078154 -2.226129
  H 0.385649 -0.693119 -2.326077
  H 0.933754 1.210100 -4.641509
  H -0.554756 0.310056 -4.359122
  H 0.933751 -0.552506 -4.740963
  H 4.995413 0.079765 -0.277831
  H 4.811061 0.251435 -3.320288
 31
 11.861645
  C 0.905372 0.047778 0.288970
  C 2.391296 0.058482 0.099221
  C 3.255406 -0.011223 1.334646
  C 2.483294 -0.095939 2.835897
  C 3.514076 -0.158819 3.950361
  C 3.019594 0.131868 -1.201298
  C 2.360820 0.208614 -2.561403
  C 0.845779 0.219395 -2.752389
  C 0.503946 0.303224 -4.238020
  C 4.473010 0.136356 -1.280776
  C 5.219200 0.198464 -2.381570
  H 6.297233 0.197058 -2.356639
  H 0.622383 -0.011223 1.334527
  H 0.457688 -0.814927 -0.198536
  H 0.457688 0.959848 -0.098389
  H 3.897858 0.870799 1.366035
  H 3.897863 -0.891177 1.266613
  H 1.855796 -0.985109 2.880172
  H 1.855791 0.782599 2.979919
  H 4.148001 -1.036854 3.844604
  H 3.016108 -0.213337 4.916442
  H 4.148001 0.725547 3.944046
  H 2.744093 -0.639663 -3.140405
  H 2.744094 1.116647 -3.041300
  H 0.400968 1.078983 -2.253249
  H 0.400966 -0.690893 -2.353118
  H 0.908674 1.212026 -4.679021
  H -0.575432 0.310957 -4.375030
  H 0.908674 -0.550200 -4.778462
  H 5.008618 0.083550 -0.344921
  H 4.839755 0.255298 -3.388757
 31
 33.647679
  C 0.917498 0.048241 0.280756
  C 2.389649 0.059754 0.076765
  C 3.290119 -0.007192 1.263294
  C 2.418123 -0.103732 2.974157
  C 3.519186 -0.162256 4.011372
  C 3.020067 0.134825 -1.253674
  C 2.360217 0.210294 -2.591239
  C 0.847966 0.220364 -2.769725
  C 0.505473 0.304186 -4.255300
  C 4.458034 0.138454 -1.317941
  C 5.211658 0.200594 -2.419251
  H 6.288476 0.196540 -2.347375
  H 0.683672 -0.011097 1.332292
  H 0.459506 -0.805034 -0.210346
  H 0.459503 0.951346 -0.111236
  H 3.899873 0.879005 1.389869
  H 3.899893 -0.902021 1.289374
  H 1.816196 -1.003538 2.946037
  H 1.816188 0.793524 3.047436
  H 4.146977 -1.036896 3.867082
  H 3.085222 -0.218518 5.008484
  H 4.146932 0.723013 3.966388
  H 2.747193 -0.636391 -3.169572
  H 2.747202 1.116678 -3.070670
  H 0.407597 1.080369 -2.264348
  H 0.407592 -0.691044 -2.364288
  H 0.915122 1.212520 -4.693894
  H -0.573063 0.312225 -4.397843
  H 0.915080 -0.548964 -4.793227
  H 4.983648 0.084973 -0.370091
  H 4.814926 0.256985 -3.418689
 31
 59.434296
  C 0.993766 0.050034 0.248925
  C 2.463369 0.063473 0.010728
  C 3.368166 -0.002396 1.178130
  C 2.336131 -0.112757 3.133968
  C 3.433696 -0.169264 4.135420
  C 3.058153 0.137541 -1.301928
  C 2.369178 0.212308 -2.626935
  C 0.841201 0.220285 -2.768255
  C 0.457665 0.303707 -4.246727
  C 4.503919 0.142638 -1.392259
  C 5.239593 0.205394 -2.504345
  H 6.313772 0.202262 -2.448645
  H 0.800477 -0.010493 1.321557
  H 0.516439 -0.814748 -0.237012
  H 0.516439 0.964000 -0.136643
  H 3.959910 0.887745 1.347357
  H 3.959914 -0.905924 1.246153
  H 1.746945 -1.007973 3.067135
  H 1.746938 0.784297 3.168266
  H 4.058481 -1.044375 3.983926
  H 3.014467 -0.225820 5.137744
  H 4.058488 0.717340 4.083336
  H 2.745876 -0.639459 -3.218180
  H 2.745899 1.125212 -3.118629
  H 0.411197 1.082968 -2.250412
  H 0.411214 -0.695145 -2.350761
  H 0.853341 1.211842 -4.696005
  H -0.624214 0.310114 -4.360311
  H 0.853334 -0.548108 -4.795300
  H 5.033374 0.090034 -0.459896
  H 4.823483 0.260571 -3.482111
