 17
 0.000000
  H 1.405224 0.134920 0.386628
  C 2.475139 0.140018 0.399085
  C 3.241227 0.613797 1.578372
  H 2.683154 0.954049 2.425534
  C 3.096863 -0.322475 -0.752613
  C 4.472906 -0.413204 -0.978851
  C 5.132414 -0.867699 -2.111643
  C 4.618673 -1.388937 -3.410716
  H 3.569972 -1.467842 -3.607948
  O 6.457488 -0.870547 -2.119086
  H 3.897288 1.429656 1.253616
  H 3.897458 -0.199872 1.908184
  H 2.436796 -0.639606 -1.542199
  H 5.100515 -0.083792 -0.158214
  H 5.068655 -2.379864 -3.541239
  H 5.069011 -0.763340 -4.190016
  H 6.834017 -0.535875 -1.285013
 17
 0.000000
  H 1.443994 0.108841 0.321666
  C 2.543843 0.117585 0.343202
  C 3.299031 0.593789 1.528530
  H 2.733166 0.932251 2.371230
  C 3.138713 -0.329746 -0.770736
  C 4.450672 -0.414659 -0.982484
  C 5.086487 -0.852795 -2.074517
  C 4.598865 -1.377506 -3.382235
  H 3.554292 -1.463668 -3.597531
  O 6.348471 -0.838005 -2.038018
  H 3.955047 1.411738 1.208982
  H 3.955212 -0.217789 1.863552
  H 2.478149 -0.646733 -1.559964
  H 5.076877 -0.084873 -0.160925
  H 5.057894 -2.365282 -3.504917
  H 5.058237 -0.748755 -4.153687
  H 6.677851 -0.485003 -1.158267
 17
 0.000000
  H 1.479850 0.082890 0.257026
  C 2.613011 0.095883 0.289138
  C 3.356107 0.574721 1.481030
  H 2.781695 0.911179 2.318737
  C 3.182776 -0.336771 -0.788245
  C 4.430299 -0.416480 -0.987029
  C 5.042944 -0.838881 -2.039856
  C 4.581480 -1.366868 -3.355730
  H 3.541373 -1.460224 -3.588928
  O 6.240621 -0.808154 -1.963650
  H 4.012019 1.394977 1.167230
  H 4.012179 -0.234550 1.821801
  H 2.521484 -0.653546 -1.576947
  H 5.055655 -0.086467 -0.164915
  H 5.049355 -2.351446 -3.470455
  H 5.049684 -0.734917 -4.119218
  H 6.518040 -0.435423 -1.034738
 17
 0.000000
  H 1.512490 0.057035 0.192622
  C 2.682574 0.074954 0.237001
  C 3.412361 0.556627 1.435957
  H 2.828652 0.890857 2.268113
  C 3.228993 -0.343538 -0.805111
  C 4.412075 -0.418558 -0.992215
  C 5.002057 -0.825914 -2.007552
  C 4.566506 -1.356950 -3.331017
  H 3.531145 -1.457358 -3.581764
  O 6.134530 -0.781078 -1.896200
  H 4.068092 1.379407 1.128445
  H 4.068246 -0.250119 1.783018
  H 2.566800 -0.660051 -1.593164
  H 5.037141 -0.088465 -0.169912
  H 5.042936 -2.338320 -3.437760
  H 5.043250 -0.721788 -4.086517
  H 6.354182 -0.387553 -0.915466
 17
 0.000000
  H 1.540502 0.031365 0.128680
  C 2.752386 0.055023 0.187350
  C 3.467542 0.539735 1.393879
  H 2.873745 0.871491 2.219869
  C 3.277391 -0.349996 -0.821211
  C 4.396365 -0.420860 -0.997960
  C 4.964278 -0.814067 -1.978041
  C 4.554014 -1.347894 -3.308451
  H 3.523589 -1.455115 -3.576150
  O 6.031087 -0.757056 -1.836355
  H 4.122995 1.365271 1.093236
  H 4.123143 -0.264254 1.747810
  H 2.614078 -0.666183 -1.608452
  H 5.021853 -0.090874 -0.175935
  H 5.038595 -2.326095 -3.407310
  H 5.038894 -0.709560 -4.056061
  H 6.186253 -0.341490 -0.800695
 17
 0.000000
  H 1.561807 0.005830 0.065073
  C 2.822669 0.036280 0.140656
  C 3.521642 0.524260 1.355330
  H 2.916846 0.853246 2.174422
  C 3.328313 -0.356112 -0.836460
  C 4.383565 -0.423368 -1.004219
  C 4.929977 -0.803521 -1.951771
  C 4.544018 -1.339861 -3.288433
  H 3.518616 -1.453568 -3.572266
  O 5.930735 -0.736299 -1.784643
  H 4.176694 1.352824 1.062231
  H 4.176834 -0.276702 1.716806
  H 2.663576 -0.671882 -1.622666
  H 5.010411 -0.093735 -0.183086
  H 5.036254 -2.314981 -3.379628
  H 5.036536 -0.698445 -4.028374
  H 6.013095 -0.296956 -0.689731
 17
 0.000000
  H 1.575458 -0.019288 0.002508
  C 2.892215 0.019074 0.097793
  C 3.573666 0.510485 1.321018
  H 2.957145 0.836438 2.132553
  C 3.380835 -0.361778 -0.850588
  C 4.374111 -0.425939 -1.010634
  C 4.899953 -0.794397 -1.929046
  C 4.536644 -1.332932 -3.271165
  H 3.516164 -1.452628 -3.569895
  O 5.835669 -0.719076 -1.741735
  H 4.228173 1.342303 1.036028
  H 4.228306 -0.287223 1.690603
  H 2.714424 -0.677057 -1.635575
  H 5.003255 -0.096909 -0.191017
  H 5.035856 -2.305150 -3.355141
  H 5.036121 -0.688612 -4.003884
  H 5.836859 -0.255008 -0.585210
 17
 0.000000
  H 1.578903 -0.044008 -0.059067
  C 2.960834 0.003691 0.059469
  C 3.623259 0.498701 1.291668
  H 2.994223 0.821319 2.094894
  C 3.434971 -0.366931 -0.863437
  C 4.368390 -0.428534 -1.017109
  C 4.874680 -0.786916 -1.910412
  C 4.531886 -1.327317 -3.257170
  H 3.516066 -1.452394 -3.569278
  O 5.746710 -0.705559 -1.708060
  H 4.277050 1.334023 1.015410
  H 4.277175 -0.295502 1.669985
  H 2.766552 -0.681618 -1.646953
  H 5.000991 -0.100420 -0.199786
  H 5.037289 -2.296882 -3.334547
  H 5.037535 -0.680343 -3.983287
  H 5.656938 -0.215461 -0.486669
 17
 0.000000
  H 1.569808 -0.068233 -0.119409
  C 3.027749 -0.009498 0.026609
  C 3.669686 0.489246 1.268117
  H 3.027417 0.808225 2.062279
  C 3.490196 -0.371463 -0.874741
  C 4.366721 -0.431067 -1.023428
  C 4.854668 -0.781285 -1.896388
  C 4.529624 -1.323210 -3.246929
  H 3.517987 -1.452908 -3.570524
  O 5.665165 -0.695913 -1.684028
  H 4.322562 1.328309 1.001181
  H 4.322677 -0.301217 1.655755
  H 2.819368 -0.685436 -1.656483
  H 5.004106 -0.104233 -0.209312
  H 5.040286 -2.290458 -3.318547
  H 5.040514 -0.673919 -3.967286
  H 5.473800 -0.178546 -0.394683
 17
 0.000000
  H 1.546189 -0.091865 -0.178275
  C 3.092007 -0.020139 0.000097
  C 3.712153 0.482418 1.251113
  H 3.056079 0.797473 2.035502
  C 3.545729 -0.375246 -0.884178
  C 4.369193 -0.433420 -1.029299
  C 4.840143 -0.777631 -1.887290
  C 4.529486 -1.320730 -3.240741
  H 3.521341 -1.454152 -3.573586
  O 5.592060 -0.690148 -1.669664
  H 4.363893 1.325424 0.994002
  H 4.363999 -0.304102 1.648575
  H 2.872030 -0.688363 -1.663793
  H 5.012806 -0.108278 -0.219414
  H 5.044345 -2.286087 -3.307660
  H 5.044555 -0.669548 -3.956399
  H 5.288041 -0.144532 -0.309928
 17
 0.000000
  H 1.505706 -0.114834 -0.235488
  C 3.152440 -0.027861 -0.019145
  C 3.749660 0.478534 1.241444
  H 3.079361 0.789404 2.015407
  C 3.600632 -0.378144 -0.891411
  C 4.375863 -0.435478 -1.034434
  C 4.831310 -0.776092 -1.883460
  C 4.531108 -1.320011 -3.238938
  H 3.525560 -1.456129 -3.578473
  O 5.528418 -0.688220 -1.664858
  H 4.400031 1.325648 0.994570
  H 4.400127 -0.303879 1.649142
  H 2.923570 -0.690251 -1.668514
  H 5.027218 -0.112476 -0.229896
  H 5.048983 -2.283985 -3.302423
  H 5.049176 -0.667447 -3.951164
  H 5.100759 -0.113552 -0.232731
 17
 0.000000
  H 1.444725 -0.136740 -0.290055
  C 3.207690 -0.032053 -0.029592
  C 3.781405 0.478097 1.240362
  H 3.096830 0.784615 2.003487
  C 3.653729 -0.379933 -0.895880
  C 4.386920 -0.437177 -1.038675
  C 4.828304 -0.777031 -1.885803
  C 4.533514 -1.321365 -3.242300
  H 3.529328 -1.458879 -3.585285
  O 5.475463 -0.690342 -1.670142
  H 4.430190 1.329382 1.003882
  H 4.430275 -0.300146 1.658451
  H 2.972562 -0.690797 -1.669889
  H 5.047836 -0.116876 -0.240881
  H 5.052940 -2.284620 -3.304001
  H 5.053117 -0.668084 -3.952747
  H 4.914348 -0.085510 -0.162855
 17
 0.000000
  H 1.414810 -0.145124 -0.310938
  C 3.222004 -0.032988 -0.031923
  C 3.786139 0.478642 1.241723
  H 3.095832 0.783371 2.000390
  C 3.669395 -0.380628 -0.897613
  C 4.390572 -0.437803 -1.040235
  C 4.828622 -0.778114 -1.888500
  C 4.535687 -1.322589 -3.245341
  H 3.531970 -1.460581 -3.589507
  O 5.460189 -0.691909 -1.674041
  H 4.434227 1.331615 1.009450
  H 4.434308 -0.297913 1.664018
  H 2.987542 -0.691282 -1.671101
  H 5.054316 -0.118312 -0.244464
  H 5.055643 -2.285598 -3.306430
  H 5.055815 -0.669062 -3.955177
  H 4.850134 -0.076309 -0.139925
 17
 0.000000
  H 1.257917 -0.183678 -0.406977
  C 3.313207 -0.031018 -0.027027
  C 3.833593 0.486995 1.262544
  H 3.117754 0.783422 2.000538
  C 3.762780 -0.379793 -0.895557
  C 4.419008 -0.438483 -1.041943
  C 4.831480 -0.783893 -1.902910
  C 4.534628 -1.328086 -3.259012
  H 3.529922 -1.465092 -3.600674
  O 5.380631 -0.703535 -1.702999
  H 4.478114 1.347592 1.049272
  H 4.478176 -0.281939 1.703832
  H 3.070403 -0.687194 -1.660952
  H 5.105896 -0.125848 -0.263282
  H 5.053482 -2.291606 -3.321390
  H 5.053627 -0.675074 -3.970147
  H 4.490341 -0.034998 -0.036992
