 23
 0.000000
  C 0.999336 0.144961 0.411869
  C 2.474461 0.137701 0.393361
  C 3.241134 0.607044 1.561391
  H 2.627661 0.939373 2.389068
  C 3.085638 -0.327978 -0.766217
  C 4.461224 -0.415220 -0.984181
  C 5.130503 -0.869285 -2.115736
  C 4.623948 -1.390451 -3.414659
  C 3.133127 -1.502838 -3.695645
  H 2.987846 -1.902903 -4.692733
  O 6.451770 -0.868062 -2.112963
  H 0.591793 0.520049 1.345781
  H 0.617173 -0.863370 0.247680
  H 0.616869 0.759483 -0.404128
  H 3.895189 1.428486 1.261364
  H 3.895532 -0.193397 1.912918
  H 2.421943 -0.643886 -1.552379
  H 5.092311 -0.086842 -0.166472
  H 5.082026 -2.377919 -3.541539
  H 5.082510 -0.764943 -4.188961
  H 2.653474 -0.528143 -3.653217
  H 2.653042 -2.177655 -2.991323
  H 6.846730 -0.536420 -1.284814
 23
 11.697924
  C 1.043957 0.195148 0.534554
  C 2.528672 0.097679 0.293953
  C 3.368928 0.551226 1.425174
  H 2.743855 0.882300 2.250188
  C 2.887682 -0.379892 -0.895767
  C 4.237622 -0.410576 -0.972426
  C 5.048032 -0.844545 -2.054778
  C 4.667004 -1.381503 -3.392136
  C 3.207259 -1.535996 -3.775668
  H 3.160175 -1.940304 -4.783344
  O 6.352403 -0.794839 -1.934500
  H 0.800223 0.588765 1.515743
  H 0.595338 -0.794076 0.420313
  H 0.596698 0.832243 -0.231627
  H 4.009378 1.388442 1.138754
  H 4.009051 -0.252009 1.796816
  H 2.195719 -0.680434 -1.645594
  H 4.816043 -0.071937 -0.127595
  H 5.169243 -2.351557 -3.482429
  H 5.168520 -0.742744 -4.128168
  H 2.693761 -0.578921 -3.783659
  H 2.694370 -2.233478 -3.119802
  H 6.672306 -0.454151 -1.086884
 23
 43.190913
  C 1.054472 0.219128 0.587429
  C 2.611676 0.062537 0.204574
  C 3.458010 0.514847 1.343795
  H 2.826968 0.846605 2.165070
  C 2.765351 -0.422162 -1.005146
  C 4.118334 -0.410339 -0.975084
  C 4.996920 -0.825542 -2.012750
  C 4.688955 -1.366125 -3.354366
  C 3.243503 -1.546831 -3.794368
  H 3.239182 -1.953317 -4.803164
  O 6.303157 -0.748737 -1.832345
  H 0.887755 0.617001 1.584876
  H 0.579137 -0.762239 0.502705
  H 0.583528 0.875664 -0.149762
  H 4.098546 1.365067 1.072363
  H 4.088712 -0.294758 1.735983
  H 2.035565 -0.710328 -1.728101
  H 4.685946 -0.075064 -0.133933
  H 5.213238 -2.327418 -3.423397
  H 5.209560 -0.718810 -4.071032
  H 2.715178 -0.598652 -3.822516
  H 2.719088 -2.251732 -3.156341
  H 6.586782 -0.399965 -0.973024
 23
 85.084909
  C 1.051823 0.230720 0.617022
  C 2.697663 0.034547 0.139227
  C 3.498699 0.498858 1.299358
  H 2.851903 0.824390 2.105866
  C 2.699881 -0.454703 -1.074354
  C 4.057270 -0.404213 -0.956657
  C 4.978863 -0.816043 -1.987902
  C 4.702224 -1.358176 -3.334895
  C 3.258440 -1.545179 -3.796205
  H 3.268843 -1.951998 -4.806269
  O 6.274487 -0.729058 -1.778366
  H 0.923177 0.628990 1.613403
  H 0.583967 -0.747481 0.545096
  H 0.588220 0.892953 -0.109380
  H 4.134502 1.361690 1.039540
  H 4.132089 -0.306031 1.709089
  H 1.957661 -0.732586 -1.767717
  H 4.655072 -0.081021 -0.139263
  H 5.233862 -2.317379 -3.396811
  H 5.232360 -0.708207 -4.044067
  H 2.727278 -0.600697 -3.831043
  H 2.728718 -2.250743 -3.166387
  H 6.536972 -0.379320 -0.912883
 23
 121.799513
  C 0.958814 0.248588 0.629265
  C 2.848011 -0.007160 0.100380
  C 3.500073 0.534532 1.313625
  H 2.786305 0.881101 2.047239
  C 2.698756 -0.550726 -1.067598
  C 4.127116 -0.421238 -0.956309
  C 4.982212 -0.810762 -1.976955
  C 4.694051 -1.349813 -3.342300
  C 3.251986 -1.510207 -3.810099
  H 3.265223 -1.904085 -4.823803
  O 6.311485 -0.775781 -1.793918
  H 0.884089 0.647285 1.623086
  H 0.587867 -0.761085 0.574311
  H 0.520973 0.902405 -0.107049
  H 4.110661 1.401135 1.052272
  H 4.125721 -0.219684 1.799058
  H 1.939627 -0.848429 -1.737835
  H 4.768850 -0.150408 -0.136473
  H 5.208798 -2.312877 -3.412119
  H 5.224566 -0.686896 -4.033855
  H 2.732106 -0.556670 -3.836972
  H 2.713407 -2.224971 -3.194507
  H 6.607319 -0.432274 -0.935274
 23
 130.238064
  C 0.633877 0.238800 0.745798
  C 3.033385 -0.031328 0.100545
  C 3.530005 0.561857 1.347062
  H 2.718208 0.877997 2.005619
  C 2.759733 -0.513760 -1.063167
  C 4.303834 -0.439574 -0.986429
  C 5.067925 -0.826695 -2.030558
  C 4.720795 -1.342191 -3.403148
  C 3.263867 -1.514455 -3.812008
  H 3.231758 -1.914977 -4.827068
  O 6.422182 -0.800753 -1.928319
  H 0.593475 0.636911 1.745454
  H 0.364277 -0.801758 0.667706
  H 0.293654 0.901749 -0.024678
  H 4.121920 1.464941 1.130006
  H 4.134795 -0.171189 1.910560
  H 2.000900 -0.782706 -1.758721
  H 4.977386 -0.166675 -0.179073
  H 5.224813 -2.312208 -3.477827
  H 5.235754 -0.688315 -4.113918
  H 2.739676 -0.564076 -3.811071
  H 2.758210 -2.224086 -3.165283
  H 6.766758 -0.471467 -1.082264
 23
 122.581930
  C -0.008135 0.305096 0.934704
  C 3.318332 0.008979 0.144715
  C 3.605523 0.613550 1.398207
  H 2.630807 0.845323 1.839133
  C 3.016899 -0.515526 -0.962213
  C 4.588920 -0.467416 -1.020483
  C 5.215826 -0.892270 -2.131277
  C 4.748648 -1.375170 -3.474361
  C 3.273924 -1.495224 -3.816505
  H 3.200102 -1.850194 -4.834365
  O 6.572747 -0.911463 -2.151098
  H -0.022204 0.736335 1.914026
  H -0.053571 -0.754856 0.830591
  H -0.157962 0.925924 0.081970
  H 4.163628 1.543485 1.279563
  H 4.144967 -0.059170 2.069318
  H 2.388262 -0.869522 -1.734943
  H 5.263573 -0.210876 -0.216188
  H 5.222302 -2.352355 -3.618754
  H 5.215716 -0.702075 -4.194766
  H 2.770857 -0.528515 -3.777966
  H 2.772923 -2.230111 -3.188265
  H 6.997425 -0.614948 -1.330443
 23
 104.115296
  C -0.421969 0.278188 0.836840
  C 3.425731 0.117204 0.397561
  C 3.542527 0.709294 1.655056
  H 2.509974 0.865131 1.995198
  C 3.547537 -0.391447 -0.768960
  C 4.946038 -0.526612 -1.181022
  C 5.417557 -0.987627 -2.360217
  C 4.727320 -1.447853 -3.609527
  C 3.209640 -1.452602 -3.690352
  H 2.925314 -1.780491 -4.688965
  O 6.743063 -1.085247 -2.540860
  H -0.596446 0.692291 1.805212
  H -0.373038 -0.780770 0.713794
  H -0.456677 0.915363 -0.021188
  H 3.995490 1.704641 1.610499
  H 4.013296 0.058508 2.398561
  H 2.799562 -0.719237 -1.466132
  H 5.677085 -0.290125 -0.416357
  H 5.106257 -2.454729 -3.809422
  H 5.125165 -0.823737 -4.415989
  H 2.800482 -0.453204 -3.555754
  H 2.773420 -2.157557 -2.985268
  H 7.256795 -0.781816 -1.777357
