 20
 0.000000
  C 0.968612 0.175964 0.488630
  C 2.422621 0.112515 0.331476
  H 3.050877 0.440232 1.147018
  C 3.003801 -0.351935 -0.824526
  C 4.388102 -0.418430 -0.991036
  C 5.110025 -0.862541 -2.099001
  C 4.649780 -1.388864 -3.411332
  C 3.170693 -1.520019 -3.737731
  H 3.072283 -1.922130 -4.740579
  O 6.425196 -0.841413 -2.047273
  H 0.669141 0.565021 1.456545
  H 0.531905 -0.815859 0.351992
  H 0.532206 0.797609 -0.296383
  H 2.362287 -0.673576 -1.625218
  H 4.980217 -0.079631 -0.147582
  H 5.127842 -2.368964 -3.524044
  H 5.127586 -0.758108 -4.170093
  H 2.673168 -0.554057 -3.717992
  H 2.673528 -2.204914 -3.056090
  H 6.799285 -0.506502 -1.210123
 20
 0.047288
  C 0.968379 0.137081 0.527260
  C 2.411893 0.163447 0.285903
  H 3.043402 0.665762 1.006390
  C 2.989396 -0.412520 -0.820422
  C 4.372653 -0.400312 -1.012284
  C 5.113957 -0.905878 -2.083799
  C 4.658856 -1.389875 -3.416322
  C 3.180812 -1.451880 -3.765675
  H 3.088787 -1.759151 -4.803972
  O 6.420353 -0.967254 -1.987110
  H 0.693076 0.637740 1.449237
  H 0.607722 -0.894322 0.548606
  H 0.436073 0.596835 -0.309317
  H 2.352184 -0.909424 -1.527447
  H 4.953396 0.033132 -0.204678
  H 5.112092 -2.377412 -3.559684
  H 5.170478 -0.748520 -4.145030
  H 2.705529 -0.480422 -3.666468
  H 2.657880 -2.189219 -3.163877
  H 6.791632 -0.651862 -1.142788
 20
 1.152379
  C 0.974427 0.064081 0.510150
  C 2.391191 0.250269 0.196122
  H 2.946425 0.996753 0.748152
  C 3.031475 -0.458434 -0.791112
  C 4.403580 -0.353896 -1.026604
  C 5.122146 -0.963284 -2.058080
  C 4.642639 -1.373995 -3.403018
  C 3.164148 -1.314170 -3.749669
  H 3.052831 -1.523707 -4.810530
  O 6.414544 -1.149815 -1.931292
  H 0.650028 0.685298 1.337793
  H 0.771394 -0.985095 0.734736
  H 0.360764 0.285781 -0.366400
  H 2.476523 -1.185362 -1.360181
  H 4.984034 0.190174 -0.289780
  H 5.032975 -2.378076 -3.598984
  H 5.193933 -0.725522 -4.095975
  H 2.747934 -0.329426 -3.557547
  H 2.593158 -2.065765 -3.213453
  H 6.801872 -0.838613 -1.090725
 20
 3.984644
  C 1.004974 0.024396 0.538214
  C 2.364238 0.345387 0.087762
  H 2.820665 1.259720 0.443131
  C 3.062403 -0.446324 -0.788623
  C 4.399068 -0.237066 -1.108498
  C 5.119624 -1.006751 -2.034650
  C 4.653826 -1.389783 -3.391204
  C 3.190627 -1.191366 -3.759969
  H 3.070142 -1.389013 -4.823259
  O 6.366044 -1.362755 -1.809518
  H 0.672277 0.680847 1.336064
  H 0.937904 -1.017361 0.855538
  H 0.305493 0.117189 -0.297503
  H 2.586675 -1.326565 -1.199707
  H 4.955410 0.476214 -0.516606
  H 4.964306 -2.418748 -3.590903
  H 5.271899 -0.773325 -4.055722
  H 2.864654 -0.172105 -3.565038
  H 2.543293 -1.882050 -3.228215
  H 6.763887 -1.016885 -0.987972
 20
 10.638811
  C 1.053904 -0.157133 0.625313
  C 2.290511 0.336256 0.007215
  H 2.559371 1.373795 0.147841
  C 3.097929 -0.453667 -0.771659
  C 4.387058 -0.137819 -1.185997
  C 5.060499 -1.068543 -2.013723
  C 4.633220 -1.409210 -3.391067
  C 3.222764 -1.023124 -3.813360
  H 3.101441 -1.233261 -4.872106
  O 6.197524 -1.598168 -1.670968
  H 0.621929 0.571558 1.303352
  H 1.235485 -1.092523 1.155025
  H 0.314882 -0.392085 -0.144721
  H 2.763723 -1.434796 -1.083302
  H 4.931857 0.684949 -0.745738
  H 4.821333 -2.469650 -3.579846
  H 5.354003 -0.864609 -4.014702
  H 3.037151 0.034939 -3.652697
  H 2.472822 -1.595161 -3.277891
  H 6.610452 -1.246809 -0.856276
 20
 20.949288
  C 1.154894 -0.309150 0.741003
  C 2.221425 0.322576 -0.051112
  H 2.267615 1.400979 -0.093461
  C 3.125531 -0.400908 -0.788850
  C 4.359234 -0.006426 -1.284204
  C 4.957716 -1.100756 -1.987243
  C 4.611928 -1.416752 -3.390656
  C 3.297363 -0.849516 -3.910050
  H 3.207925 -1.063723 -4.970787
  O 5.961702 -1.764299 -1.516435
  H 0.596740 0.423938 1.314068
  H 1.570667 -1.056955 1.416292
  H 0.458002 -0.843456 0.091198
  H 2.927087 -1.439702 -1.052297
  H 4.885163 0.891586 -1.014736
  H 4.666380 -2.496166 -3.555181
  H 5.445178 -0.974175 -3.951192
  H 3.251901 0.227210 -3.773472
  H 2.446364 -1.297804 -3.407321
  H 6.364060 -1.428019 -0.687853
 20
 34.541528
  C 1.263923 -0.436809 0.828607
  C 2.142313 0.286532 -0.109480
  H 1.967036 1.338625 -0.284720
  C 3.142649 -0.338366 -0.832782
  C 4.362366 0.084790 -1.321733
  C 4.839119 -1.119284 -1.960770
  C 4.573692 -1.394903 -3.391073
  C 3.343887 -0.714588 -3.981194
  H 3.299936 -0.908425 -5.048472
  O 5.746628 -1.866547 -1.429377
  H 0.633113 0.249225 1.384336
  H 1.857111 -1.024749 1.528749
  H 0.622618 -1.147129 0.301708
  H 3.035951 -1.406207 -1.112010
  H 4.930487 0.952590 -1.059833
  H 4.552268 -2.473509 -3.570345
  H 5.475981 -1.005234 -3.879168
  H 3.378602 0.360732 -3.828678
  H 2.432412 -1.098077 -3.535337
  H 6.182741 -1.528686 -0.622576
 20
 50.438331
  C 1.356688 -0.609207 0.775052
  C 2.160880 0.257407 -0.108013
  H 1.813252 1.260364 -0.315267
  C 3.281437 -0.167835 -0.790923
  C 4.472653 0.215025 -1.338557
  C 4.698197 -1.125417 -1.895719
  C 4.472727 -1.374840 -3.354344
  C 3.323600 -0.582375 -3.963590
  H 3.288304 -0.762081 -5.033970
  O 5.525721 -1.960685 -1.338640
  H 0.553480 -0.049463 1.242046
  H 1.983205 -1.051792 1.549822
  H 0.918292 -1.444425 0.223147
  H 3.270397 -1.301241 -1.166854
  H 5.107420 1.066686 -1.227578
  H 4.331251 -2.445372 -3.516122
  H 5.417668 -1.089811 -3.827658
  H 3.452447 0.484033 -3.801107
  H 2.369661 -0.887670 -3.542148
  H 6.003089 -1.632026 -0.552108
 20
 58.480396
  C 1.433263 -0.688204 0.744642
  C 2.149217 0.243756 -0.145229
  H 1.675033 1.184385 -0.400146
  C 3.310165 -0.016735 -0.775516
  C 4.502660 0.244722 -1.304862
  C 4.602087 -1.141619 -1.851969
  C 4.402511 -1.349027 -3.343969
  C 3.299642 -0.490865 -3.943580
  H 3.269565 -0.645131 -5.017282
  O 5.444930 -2.019478 -1.290960
  H 0.548190 -0.223914 1.163996
  H 2.083928 -1.021225 1.554774
  H 1.130756 -1.589249 0.207550
  H 3.433986 -1.339918 -1.318627
  H 5.224785 1.023486 -1.175720
  H 4.216718 -2.407887 -3.526935
  H 5.362017 -1.094876 -3.802127
  H 3.477097 0.564011 -3.756294
  H 2.327559 -0.760552 -3.539845
  H 5.932498 -1.681400 -0.521593
 20
 52.683243
  C 1.433818 -0.615919 0.816715
  C 2.107720 0.293305 -0.128545
  H 1.570210 1.184947 -0.442688
  C 3.269352 0.088068 -0.726194
  C 4.460335 0.203457 -1.268692
  C 4.571515 -1.187719 -1.848833
  C 4.436446 -1.317265 -3.372210
  C 3.305162 -0.491982 -3.959453
  H 3.316511 -0.589706 -5.041250
  O 5.498134 -2.032674 -1.315096
  H 0.514735 -0.180066 1.192496
  H 2.091514 -0.852912 1.654554
  H 1.200083 -1.565992 0.334362
  H 3.512244 -1.498087 -1.423970
  H 5.226743 0.941957 -1.134335
  H 4.315851 -2.373401 -3.610537
  H 5.393436 -0.985844 -3.785382
  H 3.414098 0.560303 -3.711345
  H 2.338632 -0.839542 -3.603530
  H 5.952281 -1.681230 -0.533149
 20
 43.044304
  C 1.429240 -0.516719 0.914977
  C 2.050435 0.332734 -0.121795
  H 1.463041 1.173340 -0.487127
  C 3.205047 0.144134 -0.710652
  C 4.399004 0.076710 -1.242705
  C 4.536606 -1.283684 -1.871940
  C 4.475496 -1.274177 -3.421804
  C 3.291466 -0.516463 -3.987433
  H 3.350929 -0.529680 -5.072905
  O 5.563879 -2.072796 -1.409241
  H 0.509483 -0.076706 1.283522
  H 2.122722 -0.666523 1.743616
  H 1.211643 -1.507762 0.515730
  H 3.556664 -1.731797 -1.544298
  H 5.215976 0.761774 -1.093852
  H 4.459190 -2.316264 -3.739323
  H 5.411027 -0.824645 -3.763211
  H 3.288043 0.519707 -3.661205
  H 2.351804 -0.981627 -3.700773
  H 6.002929 -1.715901 -0.622602
 20
 37.162614
  C 1.320455 -0.411929 0.871176
  C 1.998714 0.359880 -0.193939
  H 1.438205 1.188632 -0.622353
  C 3.180185 0.134241 -0.700877
  C 4.384192 -0.069687 -1.169053
  C 4.603019 -1.381890 -1.851382
  C 4.527754 -1.206963 -3.407128
  C 3.220945 -0.632353 -3.906890
  H 3.266383 -0.560911 -4.991738
  O 5.768032 -2.041487 -1.514390
  H 0.414034 0.084792 1.197953
  H 1.996044 -0.548030 1.716282
  H 1.068603 -1.411494 0.516140
  H 3.733717 -2.010703 -1.580134
  H 5.212676 0.603747 -1.004840
  H 4.686643 -2.208304 -3.808011
  H 5.367551 -0.574379 -3.698358
  H 3.039898 0.363799 -3.514561
  H 2.382710 -1.275414 -3.651939
  H 6.253361 -1.617053 -0.791426
 20
 35.329574
  C 1.186286 -0.321195 0.666902
  C 2.049241 0.421730 -0.284267
  H 1.625955 1.332169 -0.706485
  C 3.249042 0.098320 -0.674677
  C 4.470488 -0.197258 -1.042469
  C 4.751517 -1.428923 -1.833452
  C 4.508980 -1.116161 -3.356139
  C 3.077750 -0.778128 -3.706267
  H 3.010775 -0.635117 -4.783595
  O 6.025238 -1.943851 -1.687493
  H 0.302382 0.253331 0.925210
  H 1.754886 -0.556084 1.568362
  H 0.878327 -1.276154 0.239466
  H 4.013373 -2.201229 -1.563520
  H 5.306756 0.429466 -0.760834
  H 4.815355 -2.035054 -3.859120
  H 5.189996 -0.314730 -3.644370
  H 2.746714 0.141934 -3.233645
  H 2.403098 -1.585938 -3.433790
  H 6.535593 -1.503296 -0.994627
 20
 30.518042
  C 1.142565 -0.236412 0.568400
  C 2.053556 0.504056 -0.322352
  H 1.677858 1.430734 -0.747279
  C 3.279274 0.145336 -0.637537
  C 4.476365 -0.252177 -0.922212
  C 4.759487 -1.495268 -1.766492
  C 4.526960 -1.019884 -3.235220
  C 3.060617 -0.945269 -3.600046
  H 2.966617 -0.662243 -4.645836
  O 6.005020 -2.023250 -1.543428
  H 0.461484 0.443879 1.072832
  H 1.696740 -0.844123 1.280765
  H 0.533699 -0.922634 -0.023733
  H 4.044764 -2.287885 -1.526909
  H 5.357786 0.288885 -0.605005
  H 5.019087 -1.778730 -3.849272
  H 5.017145 -0.060782 -3.410279
  H 2.536455 -0.194434 -3.012820
  H 2.573929 -1.905111 -3.458554
  H 6.712349 -1.400859 -1.779831
