 23
 0.000000
  C 0.997336 0.163435 0.457619
  C 2.459547 0.126079 0.364276
  H 3.048500 0.463631 1.204244
  C 3.051322 -0.337504 -0.789710
  C 4.430179 -0.416724 -0.987607
  C 5.117742 -0.869723 -2.116928
  C 4.614127 -1.390375 -3.414537
  C 3.125693 -1.510863 -3.715590
  C 2.927576 -2.074787 -5.120851
  O 6.431506 -0.864064 -2.103279
  H 0.647637 0.546670 1.411784
  H 0.585374 -0.836239 0.305544
  H 0.585086 0.780086 -0.343639
  H 2.389466 -0.654339 -1.577986
  H 5.046642 -0.083927 -0.159073
  H 5.077098 -2.376379 -3.540847
  H 5.077622 -0.765555 -4.187401
  H 2.647181 -0.532279 -3.669601
  H 2.646841 -2.186002 -3.005987
  H 3.375186 -1.425295 -5.869295
  H 1.867633 -2.164211 -5.344235
  H 3.374935 -3.061642 -5.212589
  H 6.833784 -0.533153 -1.277405
 23
 15.212595
  C 1.099300 0.180579 0.498811
  C 2.571837 0.081375 0.251457
  H 3.231423 0.405733 1.057185
  C 3.017611 -0.388899 -0.917091
  C 4.382094 -0.385408 -0.909559
  C 4.986852 -0.826911 -2.009782
  C 4.507811 -1.360399 -3.338681
  C 3.049246 -1.526900 -3.751200
  C 2.989524 -2.093167 -5.167954
  O 6.341033 -0.840208 -2.044025
  H 0.853215 0.576025 1.481985
  H 0.634193 -0.800903 0.380178
  H 0.633857 0.806426 -0.266256
  H 2.372035 -0.712307 -1.720334
  H 4.951385 -0.033933 -0.035926
  H 5.003607 -2.334594 -3.446705
  H 5.009395 -0.727751 -4.083548
  H 2.532804 -0.566384 -3.756137
  H 2.534376 -2.227147 -3.092547
  H 3.475414 -1.427085 -5.875908
  H 1.955986 -2.218595 -5.479439
  H 3.476888 -3.062906 -5.222165
  H 6.763198 -0.516739 -1.237792
 23
 66.607443
  C 1.201725 0.174504 0.475860
  C 2.642744 0.019518 0.094915
  H 3.294779 0.342171 0.894911
  C 3.020642 -0.444123 -1.045532
  C 4.365164 -0.359538 -0.825207
  C 4.858933 -0.787896 -1.909432
  C 4.410633 -1.320604 -3.240091
  C 2.983046 -1.524583 -3.739755
  C 3.032488 -2.088367 -5.159339
  O 6.258195 -0.830992 -2.028659
  H 1.059550 0.574199 1.465540
  H 0.690448 -0.779444 0.398506
  H 0.692080 0.808368 -0.242409
  H 2.442577 -0.769479 -1.857427
  H 4.909836 -0.020266 0.027060
  H 4.930061 -2.273636 -3.330816
  H 4.924986 -0.689118 -3.962479
  H 2.435605 -0.576070 -3.785664
  H 2.440078 -2.248602 -3.120726
  H 3.543198 -1.407580 -5.834295
  H 2.023967 -2.241931 -5.536260
  H 3.549329 -3.043448 -5.183234
  H 6.712627 -0.513489 -1.241942
 23
 143.788349
  C 1.266893 0.193732 0.482276
  C 2.756532 0.026589 0.002119
  H 3.319197 0.437917 0.829234
  C 2.948899 -0.481626 -1.132584
  C 4.386818 -0.413106 -0.644453
  C 4.679845 -0.786925 -1.802157
  C 4.310315 -1.307449 -3.197311
  C 2.928086 -1.564779 -3.773759
  C 3.096542 -2.090863 -5.211691
  O 6.178138 -0.798736 -2.020085
  H 1.237426 0.659245 1.459300
  H 0.773309 -0.779396 0.525664
  H 0.750381 0.822115 -0.250947
  H 2.365425 -0.814018 -1.951968
  H 5.009981 -0.123470 0.168017
  H 4.876133 -2.245790 -3.268999
  H 4.819715 -0.612029 -3.877403
  H 2.337462 -0.648716 -3.837361
  H 2.388004 -2.328623 -3.212530
  H 3.614983 -1.364683 -5.838382
  H 2.121630 -2.285494 -5.656069
  H 3.666768 -3.020514 -5.225182
  H 6.674058 -0.474300 -1.255834
 23
 147.160798
  C 1.236624 0.280348 0.504845
  C 2.615752 0.119698 -0.050115
  H 3.318024 0.762636 0.458429
  C 2.847278 -0.727182 -1.043742
  C 4.557471 -0.777246 -0.549347
  C 4.168674 -0.856489 -1.740723
  C 4.212146 -1.326437 -3.124887
  C 2.894609 -1.556585 -3.839765
  C 3.159808 -2.021235 -5.269597
  O 6.548179 -0.584927 -2.122319
  H 1.212537 1.004933 1.310217
  H 0.819539 -0.656944 0.867006
  H 0.587109 0.619466 -0.303118
  H 2.120441 -1.249502 -1.657227
  H 5.286639 -0.563915 0.194024
  H 4.820912 -2.236403 -3.124993
  H 4.802555 -0.588984 -3.675882
  H 2.317307 -0.632383 -3.883414
  H 2.315990 -2.343226 -3.346741
  H 3.724153 -1.275156 -5.825183
  H 2.220489 -2.193476 -5.791376
  H 3.729469 -2.949688 -5.282736
  H 7.122250 -0.240517 -1.411162
 23
 145.601348
  C 1.318818 0.348314 0.748086
  C 2.522569 0.077050 -0.094472
  H 3.332009 0.746213 0.157892
  C 2.514778 -0.767134 -1.133264
  C 4.337048 -0.845977 -0.565146
  C 3.819194 -0.807839 -1.740185
  C 4.124740 -1.318728 -3.090815
  C 2.925105 -1.605497 -3.964260
  C 3.346747 -2.058690 -5.357477
  O 6.809848 -0.482732 -2.211010
  H 1.503577 1.121900 1.489226
  H 0.950622 -0.551072 1.258717
  H 0.525472 0.688069 0.087067
  H 1.701703 -1.284335 -1.629371
  H 5.119912 -0.702092 0.139639
  H 4.784778 -2.188961 -3.004893
  H 4.775770 -0.556416 -3.559836
  H 2.314658 -0.698250 -4.059982
  H 2.299333 -2.387398 -3.520310
  H 3.945793 -1.299395 -5.852708
  H 2.473061 -2.260405 -5.971381
  H 3.939042 -2.966210 -5.311940
  H 7.426880 -0.158118 -1.544937
 23
 150.677528
  C 1.467372 0.346735 0.892998
  C 2.533398 0.035402 -0.131069
  H 3.324212 0.772056 0.019968
  C 2.245532 -0.684061 -1.246468
  C 3.985756 -0.897276 -0.496857
  C 3.578299 -0.776536 -1.750120
  C 4.045511 -1.317191 -3.042190
  C 2.937406 -1.645315 -4.032207
  C 3.495993 -2.095760 -5.375434
  O 7.093509 -0.359766 -2.378828
  H 1.789666 1.094939 1.608759
  H 1.136462 -0.541209 1.438028
  H 0.610139 0.736488 0.346943
  H 1.396064 -1.153251 -1.727690
  H 4.751641 -0.860342 0.249054
  H 4.715552 -2.169390 -2.875152
  H 4.717460 -0.566979 -3.479567
  H 2.323311 -0.758895 -4.200121
  H 2.284273 -2.429782 -3.644795
  H 4.126656 -1.329114 -5.811437
  H 2.694140 -2.309478 -6.068644
  H 4.099418 -2.992797 -5.266452
  H 7.732942 -0.022964 -1.744441
 23
 132.617111
  C 1.593218 0.339331 1.014260
  C 2.550471 0.100713 -0.154903
  H 3.127921 1.023744 -0.280652
  C 2.027768 -0.552565 -1.318942
  C 3.530973 -1.031894 -0.380757
  C 3.331577 -0.827114 -1.695919
  C 3.965318 -1.307714 -2.925599
  C 2.992422 -1.627175 -4.055963
  C 3.727409 -2.060288 -5.319378
  O 7.375526 -0.460817 -2.869713
  H 1.901207 1.182670 1.620816
  H 1.525222 -0.533000 1.671088
  H 0.604179 0.538615 0.621757
  H 1.157006 -1.019331 -1.761471
  H 4.276533 -1.208991 0.365385
  H 4.617892 -2.161935 -2.697940
  H 4.679949 -0.547873 -3.275186
  H 2.380560 -0.750569 -4.284991
  H 2.324809 -2.427042 -3.760713
  H 4.411226 -1.288445 -5.664321
  H 3.020460 -2.268202 -6.122342
  H 4.321239 -2.952072 -5.137512
  H 7.991724 -0.073250 -2.238259
 23
 113.924012
  C 1.538290 0.281470 1.114797
  C 2.498601 0.250822 -0.034186
  H 3.031803 1.206007 -0.154515
  C 2.099548 -0.375589 -1.280806
  C 3.471845 -0.915947 -0.415673
  C 3.366920 -0.785786 -1.768003
  C 3.991408 -1.323812 -2.963972
  C 3.042529 -1.632740 -4.105465
  C 3.772321 -2.119554 -5.347114
  O 7.582355 -0.532511 -2.989923
  H 1.761830 1.106723 1.780701
  H 1.577020 -0.644782 1.691664
  H 0.522316 0.404711 0.733664
  H 1.173133 -0.819713 -1.624490
  H 4.214522 -1.190178 0.330648
  H 4.597619 -2.196002 -2.686221
  H 4.743794 -0.585729 -3.306198
  H 2.456367 -0.747792 -4.354355
  H 2.329242 -2.403369 -3.790584
  H 4.479179 -1.373601 -5.691616
  H 3.065012 -2.328418 -6.152212
  H 4.332685 -3.026113 -5.129782
  H 8.218576 -0.131241 -2.355250
