 20
 0.000000
  C 1.006923 -0.071977 0.046758
  C 2.503257 -0.082616 0.025873
  C 3.219277 -0.595257 -0.980530
  C 4.658752 -0.604776 -0.999215
  C 5.378428 -1.120299 -2.011270
  C 6.816884 -1.130426 -2.031150
  C 7.534416 -1.642415 -3.036278
  C 9.024337 -1.662199 -3.075108
  H 0.644268 0.394164 0.961864
  H 0.611638 -1.086828 0.007908
  H 0.611637 0.493288 -0.796989
  H 3.003210 0.352887 0.880839
  H 2.705231 -1.029247 -1.832512
  H 5.162934 -0.169949 -0.145580
  H 4.873787 -1.555074 -2.864808
  H 7.324164 -0.696122 -1.178539
  H 7.035068 -2.078511 -3.892393
  H 9.458799 -1.209189 -2.185776
  H 9.383197 -1.116396 -3.949064
  H 9.383194 -2.690039 -3.147480
 20
 4.066131
  C 0.982393 -0.092249 0.006969
  C 2.473557 -0.060358 0.069571
  C 3.272822 -0.550502 -0.892663
  C 4.689015 -0.583570 -0.957579
  C 5.382919 -1.097896 -1.967282
  C 6.808723 -1.125439 -2.021368
  C 7.506637 -1.642110 -3.035688
  C 8.992202 -1.679418 -3.108915
  H 0.544836 0.359003 0.892836
  H 0.623594 -1.118640 -0.070140
  H 0.623584 0.448861 -0.868628
  H 2.920979 0.386305 0.946439
  H 2.982629 -1.012592 -1.799811
  H 5.235923 -0.156663 -0.119494
  H 4.860611 -1.527746 -2.811155
  H 7.331232 -0.695012 -1.176361
  H 6.985349 -2.072499 -3.880604
  H 9.438720 -1.229657 -2.225949
  H 9.341233 -1.142772 -3.991505
  H 9.341225 -2.708862 -3.193769
 20
 14.362201
  C 0.959047 -0.112569 -0.032912
  C 2.446978 -0.045829 0.098090
  C 3.290357 -0.510701 -0.814547
  C 4.698797 -0.556193 -0.903864
  C 5.380159 -1.083891 -1.939820
  C 6.813966 -1.123281 -2.017139
  C 7.489690 -1.645686 -3.042684
  C 8.973774 -1.695609 -3.140682
  H 0.470292 0.328042 0.832071
  H 0.628787 -1.147762 -0.129184
  H 0.628779 0.418205 -0.926869
  H 2.846428 0.409209 0.991405
  H 3.199968 -0.987214 -1.750024
  H 5.296183 -0.139630 -0.086078
  H 4.848625 -1.512806 -2.781851
  H 7.355132 -0.696764 -1.179810
  H 6.951193 -2.070742 -3.877159
  H 9.438923 -1.249823 -2.265526
  H 9.312422 -1.162274 -4.030206
  H 9.312422 -2.728722 -3.232298
