 17
 0.000000
  C 0.974105 0.134780 0.386143
  C 2.429761 0.084503 0.264082
  H 3.027629 0.420909 1.101864
  C 3.067366 -0.370038 -0.866750
  C 4.459962 -0.410310 -0.969172
  C 5.191718 -0.852900 -2.074708
  C 4.609761 -1.357195 -3.331528
  H 3.527942 -1.357769 -3.332420
  O 6.498060 -0.843460 -2.054591
  H 0.653061 0.521385 1.347703
  H 0.546823 -0.859341 0.232870
  H 0.548605 0.747665 -0.412426
  H 2.459039 -0.703397 -1.696059
  H 5.027808 -0.066203 -0.113150
  H 4.980617 -2.365462 -3.515906
  H 4.980407 -0.755916 -4.161720
  H 6.897092 -0.511960 -1.226955
 17
 4.561065
  C 0.958007 0.132216 0.380452
  C 2.412384 0.030886 0.285004
  H 2.998538 0.232869 1.170855
  C 3.061434 -0.317002 -0.875395
  C 4.454401 -0.421538 -0.942604
  C 5.194118 -0.856338 -2.044817
  C 4.616901 -1.352204 -3.305022
  H 3.551979 -1.179741 -3.384238
  O 6.504972 -0.950651 -1.969335
  H 0.635128 0.602570 1.303246
  H 0.521302 -0.871763 0.332154
  H 0.541038 0.657993 -0.481006
  H 2.463887 -0.524009 -1.751579
  H 5.010897 -0.192667 -0.043333
  H 4.810774 -2.422676 -3.399863
  H 5.142691 -0.888924 -4.138536
  H 6.983788 -0.218071 -1.544750
 17
 11.343248
  C 0.928454 0.136901 0.371289
  C 2.381090 0.040577 0.295346
  H 2.961541 0.272332 1.181863
  C 3.044584 -0.364430 -0.839163
  C 4.437635 -0.473823 -0.880739
  C 5.197299 -0.875375 -1.978146
  C 4.647887 -1.292614 -3.275800
  H 3.592796 -1.078869 -3.385161
  O 6.513993 -1.003073 -1.804267
  H 0.593502 0.665629 1.257378
  H 0.499446 -0.870569 0.389296
  H 0.515260 0.593104 -0.530541
  H 2.462007 -0.593101 -1.719548
  H 4.990071 -0.235738 0.019387
  H 4.807659 -2.368062 -3.387890
  H 5.212389 -0.837194 -4.089348
  H 7.084673 -0.252569 -2.027195
 17
 3.780211
  C 0.897249 0.097901 0.370884
  C 2.355588 0.054213 0.305877
  H 2.919489 0.360940 1.175452
  C 3.040932 -0.372407 -0.807218
  C 4.435089 -0.430244 -0.842828
  C 5.215053 -0.834758 -1.930254
  C 4.693473 -1.225472 -3.252122
  H 3.645493 -0.988655 -3.378612
  O 6.504716 -0.927121 -1.693643
  H 0.538166 0.626828 1.245993
  H 0.501102 -0.922870 0.389512
  H 0.479604 0.539411 -0.535658
  H 2.469098 -0.683652 -1.671487
  H 4.988826 -0.120499 0.036091
  H 4.834924 -2.303492 -3.368892
  H 5.265541 -0.759579 -4.052787
  H 7.120142 -0.648579 -2.396516
 17
 1.776942
  C 0.875757 0.083620 0.369858
  C 2.337814 0.017688 0.311217
  H 2.901001 0.175200 1.224555
  C 3.030097 -0.235689 -0.843956
  C 4.423949 -0.289510 -0.885938
  C 5.206152 -0.743884 -1.959597
  C 4.695055 -1.367671 -3.188501
  H 3.612604 -1.391826 -3.216079
  O 6.485361 -0.662116 -1.735974
  H 0.511711 0.131770 1.386923
  H 0.427779 -0.767164 -0.152122
  H 0.524742 0.968484 -0.168123
  H 2.469345 -0.390386 -1.755451
  H 4.993734 0.108327 -0.047435
  H 5.068270 -2.389460 -3.249640
  H 5.068893 -0.845660 -4.068194
  H 7.157044 -0.823437 -2.432569
 17
 11.189636
  C 0.886671 0.078786 0.352851
  C 2.335417 -0.120468 0.279027
  H 2.860883 -0.392144 1.185937
  C 3.039404 -0.048693 -0.889482
  C 4.437010 -0.199653 -0.941838
  C 5.204695 -0.747140 -1.966611
  C 4.708233 -1.585826 -3.067868
  H 3.633561 -1.717463 -3.006068
  O 6.496919 -0.571030 -1.774910
  H 0.469851 -0.286400 1.287894
  H 0.375986 -0.389175 -0.490413
  H 0.667937 1.145697 0.267533
  H 2.519686 0.209856 -1.802601
  H 5.114679 0.267829 -0.229170
  H 5.196609 -2.560597 -3.024141
  H 4.957041 -1.153691 -4.036375
  H 7.062007 -0.471568 -2.559274
 17
 32.239155
  C 0.854484 0.156318 0.460404
  C 2.253299 -0.251536 0.265084
  H 2.744202 -0.792898 1.061026
  C 2.940145 -0.012855 -0.886277
  C 4.318777 -0.273711 -1.039230
  C 5.127254 -0.798664 -2.032696
  C 4.845294 -1.740736 -3.125870
  H 3.796028 -2.023212 -3.120325
  O 6.382512 -0.419127 -1.762003
  H 0.432572 -0.262958 1.363429
  H 0.235798 -0.109168 -0.392228
  H 0.809286 1.246837 0.532005
  H 2.448195 0.538718 -1.683692
  H 5.174762 0.208115 -0.501362
  H 5.465787 -2.632886 -3.014732
  H 5.092415 -1.295940 -4.086602
  H 6.937737 -0.036311 -2.469797
 17
 64.410227
  C 0.849761 0.160479 0.582228
  C 2.226115 -0.237241 0.247208
  H 2.779120 -0.817531 0.971666
  C 2.812735 0.074376 -0.950442
  C 4.103771 -0.267997 -1.286106
  C 4.982451 -0.804567 -2.104839
  C 4.943649 -1.815323 -3.178442
  H 3.919948 -2.125537 -3.361800
  O 6.260260 -0.370545 -1.612365
  H 0.486572 -0.346407 1.470396
  H 0.171095 -0.024204 -0.250650
  H 0.814789 1.237661 0.764417
  H 2.265418 0.699314 -1.649558
  H 5.459874 0.164063 -0.767409
  H 5.536341 -2.685211 -2.900348
  H 5.351789 -1.401780 -4.099836
  H 6.872507 0.044892 -2.257443
 17
 53.450914
  C 0.824198 0.165913 0.612804
  C 2.175685 -0.286048 0.218744
  H 2.737369 -0.884927 0.919526
  C 2.748188 0.063517 -0.977930
  C 3.997632 -0.296699 -1.369306
  C 4.918904 -0.806612 -2.119591
  C 4.967630 -1.837905 -3.170830
  H 3.963662 -2.176283 -3.400909
  O 6.256554 -0.327944 -1.604104
  H 0.473396 -0.344584 1.502775
  H 0.109183 0.018606 -0.194952
  H 0.834700 1.236043 0.813655
  H 2.224640 0.773585 -1.610061
  H 5.749670 0.177548 -0.896531
  H 5.558957 -2.685883 -2.834922
  H 5.420117 -1.438624 -4.076588
  H 6.833010 0.090721 -2.279283
 17
 46.040484
  C 0.828002 0.177906 0.637746
  C 2.173317 -0.271223 0.222179
  H 2.721184 -0.920593 0.888782
  C 2.727012 0.078046 -0.987946
  C 3.958258 -0.300566 -1.410579
  C 4.922266 -0.795283 -2.109881
  C 5.004930 -1.848009 -3.148229
  H 4.011751 -2.205696 -3.391486
  O 6.271253 -0.331313 -1.642254
  H 0.467270 -0.386486 1.491703
  H 0.114196 0.094379 -0.181905
  H 0.853890 1.232938 0.917403
  H 2.176587 0.757763 -1.627603
  H 5.934183 0.233307 -0.900012
  H 5.603807 -2.681747 -2.787373
  H 5.460820 -1.454421 -4.054870
  H 6.822591 0.072076 -2.349969
 17
 41.493105
  C 0.819176 0.188376 0.648394
  C 2.102152 -0.355536 0.153670
  H 2.581587 -1.134340 0.725837
  C 2.701797 0.101331 -0.999706
  C 3.885702 -0.329024 -1.474094
  C 4.913907 -0.791935 -2.092190
  C 5.049682 -1.882921 -3.092998
  H 4.073156 -2.293727 -3.325316
  O 6.270026 -0.285596 -1.700040
  H 0.342657 -0.495199 1.342991
  H 0.138732 0.404022 -0.173500
  H 0.985872 1.132324 1.173757
  H 2.219833 0.905919 -1.547838
  H 6.161104 0.325925 -0.938721
  H 5.679385 -2.674891 -2.691347
  H 5.495071 -1.511085 -4.014517
  H 6.740455 0.136480 -2.457553
 17
 42.985639
  C 0.823021 0.205195 0.673592
  C 2.145078 -0.278360 0.208516
  H 2.712842 -0.918893 0.869902
  C 2.657275 0.056971 -1.029357
  C 3.855670 -0.345256 -1.509104
  C 4.906313 -0.794689 -2.109630
  C 5.066905 -1.800361 -3.200131
  H 4.090922 -2.160431 -3.511357
  O 6.250412 -0.399380 -1.591473
  H 0.537283 -0.261500 1.615277
  H 0.054561 0.003291 -0.076208
  H 0.839388 1.290735 0.819693
  H 2.079816 0.724119 -1.664944
  H 6.177792 0.180640 -0.796820
  H 5.655571 -2.650282 -2.852773
  H 5.561521 -1.351136 -4.063071
  H 6.870167 -0.078039 -2.289781
 17
 47.666720
  C 0.799770 0.207810 0.641768
  C 2.180022 -0.172671 0.268159
  H 2.820727 -0.564370 1.042313
  C 2.652567 -0.052363 -0.998950
  C 3.911131 -0.384041 -1.401345
  C 4.937252 -0.791146 -2.070993
  C 5.041495 -1.668245 -3.271421
  H 4.049703 -1.941439 -3.613160
  O 6.289142 -0.506522 -1.541894
  H 0.610337 0.024809 1.694415
  H 0.072087 -0.350765 0.052454
  H 0.624315 1.264681 0.436582
  H 1.997788 0.381523 -1.751182
  H 6.305560 0.030503 -0.719990
  H 5.591508 -2.577586 -3.039504
  H 5.544007 -1.137171 -4.076444
  H 6.998935 -0.363068 -2.204172
 17
 53.969110
  C 0.775555 0.206851 0.628657
  C 2.211164 -0.022197 0.317591
  H 2.900768 -0.042043 1.148429
  C 2.669305 -0.202536 -0.935905
  C 3.993244 -0.418370 -1.277162
  C 4.969765 -0.798496 -2.034741
  C 4.984843 -1.543080 -3.327703
  H 3.967863 -1.740086 -3.649513
  O 6.341733 -0.590270 -1.549593
  H 0.616809 0.318912 1.696905
  H 0.166678 -0.623818 0.271571
  H 0.413242 1.105689 0.129593
  H 1.955680 -0.144062 -1.758686
  H 6.418412 -0.127848 -0.688247
  H 5.502050 -2.494344 -3.216592
  H 5.475980 -0.948558 -4.095160
  H 7.063255 -0.535807 -2.212806
 17
 57.213222
  C 0.752621 0.205001 0.585265
  C 2.212503 0.079388 0.314808
  H 2.883992 0.347610 1.117318
  C 2.708117 -0.341681 -0.854652
  C 4.064891 -0.473959 -1.153719
  C 5.001934 -0.813282 -1.984874
  C 4.936582 -1.391258 -3.360022
  H 3.900778 -1.511892 -3.658622
  O 6.384604 -0.668047 -1.543788
  H 0.569749 0.563521 1.593780
  H 0.255268 -0.757132 0.465652
  H 0.289597 0.898490 -0.116111
  H 2.006089 -0.602825 -1.649215
  H 6.516041 -0.277908 -0.654746
  H 5.414931 -2.368562 -3.381301
  H 5.422105 -0.727881 -4.073047
  H 7.106541 -0.759645 -2.200090
