 23
 0.000000
  C 0.975046 0.181177 0.503065
  C 2.430666 0.122828 0.357116
  H 3.060216 0.450418 1.171531
  C 3.000855 -0.344834 -0.806852
  C 4.384273 -0.419503 -0.993660
  C 5.098921 -0.866031 -2.107130
  C 4.626694 -1.390343 -3.414473
  C 3.143395 -1.519064 -3.736336
  C 2.963300 -2.083385 -5.143527
  O 6.413255 -0.848404 -2.063559
  H 0.661940 0.568801 1.467339
  H 0.545106 -0.813194 0.367089
  H 0.544633 0.804492 -0.283295
  H 2.336156 -0.660819 -1.592906
  H 4.980289 -0.081125 -0.150850
  H 5.097393 -2.373511 -3.533037
  H 5.097861 -0.761937 -4.179556
  H 2.659412 -0.542871 -3.694804
  H 2.658993 -2.195820 -3.031884
  H 3.416059 -1.431649 -5.886968
  H 1.906103 -2.177107 -5.377934
  H 3.415666 -3.068380 -5.230528
  H 6.771119 -0.510696 -1.220104
 23
 2.369835
  C 0.953274 0.182444 0.578287
  C 2.396752 0.120095 0.348684
  H 3.058868 0.386816 1.161105
  C 2.940366 -0.271231 -0.853226
  C 4.325604 -0.358404 -1.031301
  C 5.068576 -0.796504 -2.129546
  C 4.627972 -1.355562 -3.429370
  C 3.147859 -1.485358 -3.766470
  C 2.982248 -2.119849 -5.146999
  O 6.379135 -0.697757 -2.069950
  H 0.706323 0.482830 1.591472
  H 0.491383 -0.784173 0.360215
  H 0.489772 0.874200 -0.131289
  H 2.270714 -0.512881 -1.661003
  H 4.945567 -0.004270 -0.215404
  H 5.098989 -2.345007 -3.496265
  H 5.124636 -0.768084 -4.210821
  H 2.678640 -0.500902 -3.783790
  H 2.648191 -2.117279 -3.031648
  H 3.456731 -1.512588 -5.914948
  H 1.928041 -2.213107 -5.396333
  H 3.423682 -3.113392 -5.175751
  H 6.800139 -0.755967 -1.197856
 23
 6.684902
  C 0.947000 0.156477 0.597736
  C 2.381986 0.216295 0.301926
  H 3.025727 0.759353 0.982950
  C 2.941793 -0.388550 -0.799314
  C 4.319529 -0.328813 -1.037996
  C 5.064491 -0.841404 -2.099453
  C 4.622285 -1.383526 -3.400935
  C 3.149894 -1.459946 -3.777488
  C 3.000991 -2.026760 -5.185209
  O 6.388092 -0.693078 -2.046905
  H 0.696294 0.632130 1.543827
  H 0.596616 -0.879282 0.599142
  H 0.381062 0.633105 -0.207662
  H 2.298004 -0.938283 -1.460839
  H 4.903553 0.243972 -0.325673
  H 5.059473 -2.385028 -3.462157
  H 5.162546 -0.820908 -4.170547
  H 2.701226 -0.466050 -3.740206
  H 2.616538 -2.124279 -3.097402
  H 3.505723 -1.405812 -5.923168
  H 1.949686 -2.086205 -5.459402
  H 3.420587 -3.030622 -5.237914
  H 6.824904 -1.076902 -1.266605
 23
 10.851288
  C 0.921726 0.163869 0.581192
  C 2.362135 0.098747 0.358831
  H 3.022672 0.321172 1.186445
  C 2.913361 -0.246657 -0.853952
  C 4.299672 -0.301333 -1.028288
  C 5.054729 -0.727376 -2.115150
  C 4.638041 -1.328272 -3.398547
  C 3.165569 -1.480393 -3.753094
  C 3.019168 -2.164263 -5.110503
  O 6.379178 -0.520278 -2.006711
  H 0.669774 0.411994 1.606240
  H 0.448366 -0.780686 0.302589
  H 0.473423 0.898727 -0.093163
  H 2.251068 -0.468200 -1.674078
  H 4.914575 0.053964 -0.208294
  H 5.112141 -2.317652 -3.451727
  H 5.146226 -0.753623 -4.184676
  H 2.689064 -0.500939 -3.804722
  H 2.659450 -2.090297 -3.004403
  H 3.499158 -1.584444 -5.895238
  H 1.968800 -2.271621 -5.368055
  H 3.464480 -3.156337 -5.097347
  H 6.912394 -1.244130 -1.646321
 23
 6.196330
  C 0.893524 0.183446 0.543872
  C 2.334761 0.040354 0.365418
  H 2.970206 0.089343 1.238791
  C 2.913505 -0.165986 -0.860068
  C 4.296747 -0.281128 -0.995302
  C 5.067497 -0.659358 -2.091535
  C 4.658556 -1.286377 -3.372659
  C 3.181425 -1.469064 -3.701536
  C 3.027828 -2.198968 -5.034013
  O 6.369751 -0.451595 -1.927498
  H 0.613655 0.301141 1.584371
  H 0.368508 -0.672559 0.114468
  H 0.529919 1.039615 -0.030085
  H 2.274529 -0.216301 -1.726231
  H 4.899907 -0.090239 -0.112159
  H 5.137028 -2.272727 -3.424656
  H 5.139366 -0.706205 -4.171778
  H 2.691529 -0.499000 -3.782124
  H 2.693780 -2.057784 -2.924160
  H 3.492658 -1.638679 -5.841956
  H 1.975873 -2.325332 -5.275948
  H 3.483697 -3.185603 -4.994830
  H 6.951185 -1.197238 -2.152818
 23
 8.125152
  C 0.876225 0.087010 0.444343
  C 2.311721 -0.127105 0.299492
  H 2.875281 -0.441448 1.167646
  C 2.974319 0.019638 -0.906180
  C 4.349488 -0.211255 -1.027756
  C 5.122558 -0.626159 -2.116380
  C 4.699893 -1.339237 -3.348303
  C 3.204284 -1.471493 -3.620880
  C 2.961374 -2.263664 -4.902834
  O 6.406900 -0.372274 -1.959567
  H 0.523835 -0.145837 1.441832
  H 0.321807 -0.506178 -0.283553
  H 0.631245 1.124230 0.202909
  H 2.416636 0.350209 -1.768937
  H 5.019008 0.056751 -0.220452
  H 5.143155 -2.343415 -3.338139
  H 5.171223 -0.818392 -4.191789
  H 2.757366 -0.487699 -3.729910
  H 2.716342 -1.980878 -2.788230
  H 3.421475 -1.771499 -5.757149
  H 1.896006 -2.353708 -5.097845
  H 3.376167 -3.265597 -4.826127
  H 7.030536 -1.068915 -2.243329
 23
 20.459631
  C 0.881500 0.024641 0.389774
  C 2.307045 -0.243120 0.202010
  H 2.834980 -0.782209 0.975608
  C 2.988280 0.125590 -0.923064
  C 4.352841 -0.140303 -1.099636
  C 5.117917 -0.582298 -2.160939
  C 4.721627 -1.339756 -3.369915
  C 3.214861 -1.473703 -3.573669
  C 2.912680 -2.292519 -4.825215
  O 6.402595 -0.306451 -1.955165
  H 0.501065 -0.415006 1.304333
  H 0.299647 -0.336940 -0.459602
  H 0.710954 1.101165 0.413732
  H 2.468814 0.668533 -1.700418
  H 5.156350 0.211174 -0.447576
  H 5.153927 -2.341882 -3.312918
  H 5.175235 -0.833603 -4.233034
  H 2.764429 -0.484770 -3.676036
  H 2.774624 -1.974683 -2.707981
  H 3.319333 -1.813912 -5.711869
  H 1.838391 -2.386396 -4.962140
  H 3.328078 -3.295854 -4.746641
  H 7.030508 -1.042255 -1.983819
 23
 47.485611
  C 0.904120 0.149020 0.712847
  C 2.275460 -0.207483 0.344322
  H 2.858980 -0.791229 1.042944
  C 2.834946 0.155567 -0.851448
  C 4.140973 -0.177723 -1.216706
  C 4.956831 -0.616398 -2.218444
  C 4.739920 -1.399855 -3.445368
  C 3.259492 -1.588796 -3.775111
  C 3.081360 -2.383341 -5.063774
  O 6.227746 -0.225619 -1.875765
  H 0.615857 -0.275925 1.668788
  H 0.197158 -0.169702 -0.055116
  H 0.806163 1.236487 0.765693
  H 2.268069 0.793466 -1.523228
  H 5.191229 0.187303 -0.707845
  H 5.230106 -2.375894 -3.377066
  H 5.230288 -0.856323 -4.261038
  H 2.787704 -0.612511 -3.890770
  H 2.761864 -2.106853 -2.953919
  H 3.551527 -1.873149 -5.901259
  H 2.026007 -2.504008 -5.293412
  H 3.523019 -3.373241 -4.974410
  H 6.868536 -0.938891 -1.715713
 23
 62.269122
  C 0.922524 0.192432 0.850677
  C 2.246112 -0.249222 0.384660
  H 2.805260 -0.929193 1.010655
  C 2.780616 0.157966 -0.805668
  C 4.019781 -0.231107 -1.272796
  C 4.843604 -0.642452 -2.208913
  C 4.720663 -1.399299 -3.474517
  C 3.262421 -1.591162 -3.890131
  C 3.165352 -2.375166 -5.193854
  O 6.157216 -0.239925 -1.756274
  H 0.639642 -0.286698 1.782048
  H 0.159908 -0.006205 0.095902
  H 0.919532 1.274923 0.995772
  H 2.243362 0.898926 -1.390721
  H 5.383605 0.120263 -0.777427
  H 5.200599 -2.377225 -3.382224
  H 5.257031 -0.842833 -4.249292
  H 2.787408 -0.616761 -4.018018
  H 2.727635 -2.127021 -3.103761
  H 3.676972 -1.852362 -5.999243
  H 2.125498 -2.505479 -5.483262
  H 3.612465 -3.361130 -5.087805
  H 6.790778 -0.970443 -1.602125
 23
 53.702046
  C 0.966707 0.242049 0.975657
  C 2.230112 -0.287796 0.421077
  H 2.817844 -0.951753 1.040206
  C 2.708322 0.089525 -0.806011
  C 3.899880 -0.281653 -1.312666
  C 4.760432 -0.653938 -2.198775
  C 4.718926 -1.400533 -3.479162
  C 3.281733 -1.603679 -3.972924
  C 3.261136 -2.395259 -5.277886
  O 6.120116 -0.255178 -1.677814
  H 0.732375 -0.191230 1.942630
  H 0.138802 0.067464 0.285863
  H 1.030066 1.327905 1.079151
  H 2.185058 0.875068 -1.338834
  H 5.589995 0.061098 -0.845956
  H 5.196652 -2.381191 -3.361853
  H 5.296733 -0.838567 -4.221793
  H 2.787771 -0.641878 -4.109323
  H 2.725959 -2.162857 -3.216271
  H 3.808488 -1.870648 -6.057817
  H 2.241778 -2.566067 -5.613697
  H 3.740584 -3.362782 -5.142253
  H 6.725762 -1.018009 -1.504177
 23
 45.536615
  C 0.953175 0.199920 0.934605
  C 2.215790 -0.314633 0.393217
  H 2.729220 -1.083509 0.946971
  C 2.756137 0.144771 -0.765262
  C 3.920051 -0.279396 -1.298537
  C 4.808020 -0.690685 -2.163057
  C 4.754591 -1.440660 -3.437068
  C 3.314625 -1.604721 -3.906709
  C 3.254860 -2.395357 -5.211196
  O 6.196151 -0.307975 -1.723575
  H 0.666211 -0.333682 1.833271
  H 0.145841 0.105136 0.213268
  H 1.054232 1.264335 1.166288
  H 2.270635 0.968180 -1.274818
  H 5.867285 0.065821 -0.871029
  H 5.208855 -2.420223 -3.335008
  H 5.339240 -0.872450 -4.192335
  H 2.849803 -0.616210 -4.051164
  H 2.748478 -2.130621 -3.139864
  H 3.800770 -1.888991 -6.005779
  H 2.225401 -2.539882 -5.529616
  H 3.695738 -3.380125 -5.072910
  H 6.824835 -1.075798 -1.609885
 23
 39.894913
  C 0.877552 0.217785 0.969380
  C 2.133228 -0.281474 0.356349
  H 2.651601 -1.094406 0.839902
  C 2.636392 0.242883 -0.809993
  C 3.768586 -0.162767 -1.417106
  C 4.702929 -0.559511 -2.204862
  C 4.684296 -1.368088 -3.457017
  C 3.259342 -1.629340 -3.945880
  C 3.264197 -2.475602 -5.214408
  O 6.102130 -0.184920 -1.814073
  H 0.604008 -0.360731 1.846770
  H 0.054417 0.184247 0.251462
  H 0.984468 1.265210 1.263719
  H 2.121902 1.082569 -1.258230
  H 5.955907 0.265811 -0.946992
  H 5.182993 -2.325764 -3.296370
  H 5.237043 -0.821123 -4.224762
  H 2.759986 -0.676413 -4.146193
  H 2.694984 -2.143175 -3.167489
  H 3.812028 -1.974832 -6.013240
  H 2.247703 -2.647523 -5.560400
  H 3.726009 -3.442241 -5.034489
  H 6.692345 -0.977742 -1.717537
 23
 38.187259
  C 0.837467 0.200126 0.889229
  C 2.072392 -0.317990 0.259947
  H 2.508757 -1.222167 0.654798
  C 2.668867 0.309427 -0.809124
  C 3.797685 -0.106331 -1.417673
  C 4.739637 -0.529071 -2.186823
  C 4.687146 -1.333562 -3.441916
  C 3.255121 -1.667443 -3.847714
  C 3.228985 -2.480125 -5.135595
  O 6.156484 -0.202382 -1.851090
  H 0.470369 -0.472030 1.658165
  H 0.053956 0.349910 0.143446
  H 1.020217 1.176061 1.342789
  H 2.228019 1.228559 -1.179005
  H 6.189844 0.275976 -0.990304
  H 5.242466 -2.264699 -3.314153
  H 5.163649 -0.756587 -4.238575
  H 2.691435 -0.747459 -3.987101
  H 2.772867 -2.232259 -3.050443
  H 3.694900 -1.928268 -5.951341
  H 2.202590 -2.705405 -5.423155
  H 3.759340 -3.423784 -5.011326
  H 6.711855 -1.017647 -1.814495
