 17
 0.000000
  H -0.978769 -2.288271 -0.589589
  C -1.772124 -1.583936 -0.349189
  C -2.579710 -2.084715 0.850642
  C -1.206089 -0.218652 -0.073111
  O -0.007364 -0.016348 -0.006102
  C -2.187187 0.898582 0.117677
  H -2.431848 -1.494980 -1.215948
  H -1.959961 -2.123193 1.743732
  H -2.959886 -3.083587 0.654778
  H -3.428495 -1.438251 1.057521
  H -3.202434 0.585978 -0.104495
  H -1.920940 1.722293 -0.540597
  H -2.136215 1.244476 1.147487
  O 3.248220 0.162849 0.057341
  H 3.431406 1.124625 0.108649
  H 2.283944 -0.007036 0.002216
  H 3.648352 -0.318822 0.811781
 17
 -2.072739
  H -0.908604 -2.278678 -0.588236
  C -1.716464 -1.572903 -0.356183
  C -2.524628 -2.084499 0.854824
  C -1.132898 -0.214973 -0.082145
  O 0.066448 -0.041665 -0.014698
  C -2.102256 0.919808 0.119102
  H -2.380430 -1.495939 -1.227531
  H -1.898187 -2.131266 1.743409
  H -2.899167 -3.085024 0.648608
  H -3.373686 -1.441367 1.065360
  H -3.124750 0.633463 -0.105582
  H -1.809116 1.761346 -0.509769
  H -2.041114 1.259400 1.154777
  O 3.027041 0.114514 0.060381
  H 3.203659 1.076267 0.030753
  H 2.056605 -0.050993 0.008881
  H 3.400578 -0.286720 0.871479
 17
 -2.940791
  H -0.851297 -2.260341 -0.589032
  C -1.654550 -1.552562 -0.357534
  C -2.468436 -2.064661 0.861724
  C -1.068502 -0.209620 -0.086603
  O 0.134708 -0.043488 -0.015894
  C -2.024264 0.917859 0.116986
  H -2.318911 -1.470198 -1.225434
  H -1.843963 -2.120788 1.748437
  H -2.849316 -3.063043 0.650691
  H -3.315170 -1.411626 1.074128
  H -3.053501 0.631232 -0.116272
  H -1.728288 1.761990 -0.498614
  H -1.967095 1.249886 1.152113
  O 2.817794 0.091425 0.057952
  H 2.968932 1.054881 0.046737
  H 1.862620 -0.104729 -0.005713
  H 3.194394 -0.316265 0.863026
 17
 -3.281693
  H -0.820024 -2.267320 -0.581421
  C -1.620946 -1.554110 -0.352502
  C -2.421065 -2.052520 0.852501
  C -1.036325 -0.199269 -0.082678
  O 0.174898 -0.022642 -0.005640
  C -1.989055 0.928924 0.117334
  H -2.283643 -1.478473 -1.218167
  H -1.787329 -2.105972 1.737039
  H -2.804611 -3.049620 0.646292
  H -3.264668 -1.400980 1.068471
  H -3.008393 0.651345 -0.121040
  H -1.682249 1.777301 -0.494048
  H -1.935504 1.255392 1.156912
  O 2.696991 0.059959 0.055082
  H 2.837755 1.028606 0.047729
  H 1.696866 -0.131718 -0.009513
  H 3.063293 -0.340723 0.864761
 17
 -0.848713
  H -0.771738 -2.230958 -0.587050
  C -1.575387 -1.535796 -0.356352
  C -2.369963 -2.051632 0.843695
  C -1.013704 -0.177594 -0.074454
  O 0.189428 0.020955 0.010448
  C -1.983445 0.946261 0.127781
  H -2.238509 -1.465270 -1.216796
  H -1.737118 -2.109233 1.727826
  H -2.745746 -3.049336 0.627637
  H -3.218492 -1.407974 1.064100
  H -2.995962 0.664935 -0.127610
  H -1.673006 1.802712 -0.465389
  H -1.946335 1.257220 1.170274
  O 2.605075 0.007909 0.039437
  H 2.778222 0.981807 0.044347
  H 1.543275 -0.139490 -0.015902
  H 2.942345 -0.410548 0.872098
 17
 2.679914
  H -0.697203 -2.201048 -0.570973
  C -1.529022 -1.514241 -0.350560
  C -2.329538 -2.044206 0.847048
  C -1.011508 -0.146335 -0.068133
  O 0.189102 0.097632 0.037260
  C -2.008212 0.959459 0.124658
  H -2.186447 -1.465471 -1.219219
  H -1.711914 -2.084195 1.731293
  H -2.678007 -3.047934 0.630481
  H -3.195645 -1.419305 1.054746
  H -3.013261 0.658092 -0.147939
  H -1.705123 1.822205 -0.455666
  H -1.992210 1.264498 1.167796
  O 2.554003 -0.064137 0.033941
  H 2.795673 0.880268 0.017733
  H 1.402079 -0.121423 -0.000082
  H 2.873496 -0.472393 0.853669
 17
 4.713642
  H -0.607379 -2.107718 -0.533502
  C -1.467831 -1.471927 -0.338803
  C -2.270422 -2.041069 0.840906
  C -1.033773 -0.079658 -0.047577
  O 0.161468 0.245498 0.091549
  C -2.068973 0.967795 0.119405
  H -2.104515 -1.460260 -1.221298
  H -1.671217 -2.048474 1.742983
  H -2.558882 -3.058394 0.617878
  H -3.174678 -1.462218 1.026127
  H -3.051242 0.625103 -0.179330
  H -1.785716 1.855454 -0.450295
  H -2.094192 1.271316 1.167238
  O 2.505627 -0.210171 0.027332
  H 2.884286 0.669977 -0.102539
  H 1.238824 -0.042412 0.049822
  H 2.820740 -0.570447 0.869780
 17
 2.854397
  H -0.515276 -2.022168 -0.495882
  C -1.408996 -1.430965 -0.325767
  C -2.214564 -2.033219 0.835751
  C -1.055319 -0.026313 -0.031454
  O 0.111853 0.366418 0.144410
  C -2.125355 0.977119 0.110326
  H -2.022379 -1.453741 -1.220301
  H -1.642856 -2.006385 1.751643
  H -2.443455 -3.062277 0.610455
  H -3.151298 -1.500772 0.990981
  H -3.090476 0.596128 -0.199621
  H -1.862993 1.874586 -0.454812
  H -2.175968 1.289533 1.154207
  O 2.483191 -0.318690 0.012751
  H 2.926979 0.514927 -0.151710
  H 1.072156 -0.054482 0.072692
  H 2.814783 -0.676139 0.849474
 17
 0.552250
  H -0.398558 -1.911926 -0.450136
  C -1.332667 -1.375878 -0.312902
  C -2.139869 -2.022686 0.829288
  C -1.082521 0.044848 -0.014904
  O 0.064913 0.506724 0.197024
  C -2.204295 0.988433 0.099261
  H -1.916069 -1.448156 -1.222310
  H -1.600338 -1.954942 1.767705
  H -2.294486 -3.071615 0.600350
  H -3.113519 -1.550703 0.948347
  H -3.139498 0.563289 -0.240983
  H -1.972986 1.903783 -0.449748
  H -2.302808 1.294639 1.142113
  O 2.444373 -0.468615 0.006244
  H 2.971166 0.293598 -0.239101
  H 0.907261 -0.030748 0.114149
  H 2.801342 -0.813215 0.832307
 17
 1.990430
  H -0.341187 -1.850731 -0.420657
  C -1.297454 -1.346114 -0.303026
  C -2.102441 -2.018860 0.819486
  C -1.107845 0.079889 -0.000803
  O 0.027988 0.574334 0.227281
  C -2.256068 0.979289 0.088737
  H -1.873169 -1.444152 -1.241854
  H -1.581906 -1.930389 1.772982
  H -2.213176 -3.064423 0.590813
  H -3.092796 -1.584449 0.917671
  H -3.171934 0.521553 -0.272275
  H -2.043887 1.900566 -0.450222
  H -2.386883 1.283188 1.127877
  O 2.461703 -0.561254 0.009379
  H 3.026156 0.146183 -0.307979
  H 0.795315 0.016238 0.155545
  H 2.860546 -0.890407 0.820016
 17
 5.409188
  H -0.305687 -1.800839 -0.393704
  C -1.279522 -1.324536 -0.294395
  C -2.089247 -2.026154 0.812981
  C -1.139953 0.105586 0.008880
  O -0.020601 0.634822 0.250879
  C -2.325298 0.975252 0.073985
  H -1.832112 -1.440217 -1.236854
  H -1.595020 -1.925503 1.770156
  H -2.163570 -3.086176 0.576602
  H -3.091399 -1.623264 0.891556
  H -3.211522 0.486777 -0.305708
  H -2.122697 1.906811 -0.462368
  H -2.481620 1.272476 1.114188
  O 2.548992 -0.640299 0.012291
  H 3.131695 0.010233 -0.379990
  H 0.706299 0.079051 0.194092
  H 2.997961 -0.957067 0.799852
 17
 8.786983
  H -0.306500 -1.760890 -0.383071
  C -1.291851 -1.305541 -0.292680
  C -2.091779 -2.035241 0.806247
  C -1.198637 0.128269 0.005427
  O -0.098647 0.691550 0.258908
  C -2.404638 0.959878 0.059084
  H -1.824259 -1.432330 -1.242692
  H -1.610498 -1.924263 1.765167
  H -2.129836 -3.100041 0.562707
  H -3.108129 -1.664893 0.871860
  H -3.268498 0.448271 -0.333589
  H -2.218600 1.894514 -0.473724
  H -2.579889 1.252189 1.103676
  O 2.736761 -0.721167 0.018709
  H 3.319054 -0.117732 -0.442304
  H 0.623652 0.155203 0.220508
  H 3.213758 -1.015260 0.797743
 17
 12.128640
  H -0.302596 -1.728939 -0.377145
  C -1.304341 -1.300939 -0.294817
  C -2.105926 -2.048457 0.793890
  C -1.248279 0.134137 0.003829
  O -0.156973 0.726268 0.259192
  C -2.491385 0.949333 0.052898
  H -1.822388 -1.442602 -1.243804
  H -1.646821 -1.925666 1.767536
  H -2.114063 -3.106447 0.551502
  H -3.133797 -1.706891 0.831349
  H -3.339910 0.410124 -0.343595
  H -2.331004 1.878844 -0.496902
  H -2.678151 1.235336 1.088305
  O 2.950137 -0.786966 0.015426
  H 3.524560 -0.209683 -0.488719
  H 0.560369 0.203274 0.234200
  H 3.445593 -1.054069 0.793769
 17
 11.965446
  H -0.353325 -1.699816 -0.408805
  C -1.365050 -1.290724 -0.312202
  C -2.131139 -2.058868 0.786689
  C -1.339667 0.139738 -0.009286
  O -0.271507 0.763484 0.237092
  C -2.592869 0.917451 0.038851
  H -1.910379 -1.449710 -1.246765
  H -1.643371 -1.948745 1.749156
  H -2.149068 -3.112634 0.525649
  H -3.157884 -1.722800 0.859653
  H -3.425818 0.345966 -0.355530
  H -2.460089 1.842723 -0.528221
  H -2.792812 1.197358 1.067528
  O 3.289614 -0.834807 0.026179
  H 3.873269 -0.262571 -0.480877
  H 0.488047 0.283890 0.214341
  H 3.769417 -1.132205 0.804470
