 12
 0.000000
  C 0.967920 0.152121 0.430928
  C 2.428226 0.138911 0.397148
  C 3.233390 0.592385 1.524893
  H 2.638254 0.930313 2.366659
  C 3.056890 -0.321990 -0.749985
  H 4.130087 -0.357232 -0.838237
  H 0.553853 0.526334 1.362226
  H 0.580842 -0.854145 0.241512
  H 0.580385 0.747311 -0.402001
  H 3.911171 1.391239 1.206627
  H 3.911703 -0.204149 1.847631
  H 2.474788 -0.660559 -1.592020
 12
 4.051837
  C 0.957019 0.142556 0.407236
  C 2.394117 0.134738 0.386962
  C 3.196171 0.590237 1.519583
  H 2.605987 0.930090 2.366168
  C 3.067323 -0.323059 -0.752493
  H 4.145619 -0.344891 -0.807224
  H 0.789113 0.536867 1.388472
  H 0.521113 -0.843923 0.251084
  H 0.520825 0.746695 -0.387919
  H 3.877828 1.385851 1.200934
  H 3.878583 -0.204044 1.839799
  H 2.520975 -0.670670 -1.617421
 12
 13.491645
  C 0.931700 0.133778 0.385502
  C 2.373063 0.130174 0.375956
  C 3.175051 0.588506 1.515216
  H 2.595563 0.932188 2.371261
  C 3.075250 -0.318224 -0.740319
  H 4.152392 -0.331308 -0.772700
  H 0.973662 0.527819 1.366327
  H 0.471168 -0.842669 0.266809
  H 0.471223 0.756781 -0.375569
  H 3.860553 1.384085 1.193427
  H 3.861527 -0.207704 1.833090
  H 2.552645 -0.670218 -1.617007
 12
 26.263962
  C 0.908318 0.127514 0.370003
  C 2.358940 0.131724 0.380183
  C 3.163144 0.589425 1.517358
  H 2.596224 0.935656 2.379972
  C 3.080779 -0.314601 -0.731042
  H 4.159042 -0.324459 -0.755534
  H 1.114436 0.515199 1.335797
  H 0.440702 -0.848368 0.277298
  H 0.440915 0.768863 -0.371716
  H 3.845573 1.379406 1.192589
  H 3.847022 -0.204616 1.829128
  H 2.569759 -0.667755 -1.610306
 12
 39.621047
  C 0.885557 0.117355 0.342927
  C 2.361162 0.130609 0.379383
  C 3.165212 0.593650 1.527749
  H 2.602634 0.939401 2.388447
  C 3.077692 -0.313405 -0.722986
  H 4.157175 -0.316303 -0.744665
  H 1.226931 0.497110 1.291664
  H 0.416431 -0.856249 0.285289
  H 0.413924 0.785061 -0.366191
  H 3.843757 1.386478 1.205028
  H 3.844435 -0.201098 1.843422
  H 2.571641 -0.669493 -1.603863
 12
 48.769193
  C 0.880179 0.106321 0.299426
  C 2.392341 0.120208 0.374955
  C 3.187188 0.607603 1.551533
  H 2.604109 0.961464 2.409127
  C 3.045020 -0.329304 -0.713581
  H 4.127764 -0.290557 -0.761238
  H 1.323419 0.465353 1.228860
  H 0.433126 -0.874694 0.247863
  H 0.390086 0.822750 -0.342735
  H 3.860526 1.402672 1.243999
  H 3.841073 -0.192518 1.884786
  H 2.531000 -0.699441 -1.581410
 12
 52.656273
  C 0.872868 0.097674 0.255911
  C 2.420405 0.117939 0.397629
  C 3.211781 0.622846 1.580583
  H 2.623892 0.979140 2.409835
  C 3.020597 -0.345616 -0.703008
  H 4.094430 -0.265942 -0.793794
  H 1.385432 0.432169 1.193100
  H 0.450370 -0.888452 0.173771
  H 0.370514 0.859703 -0.312495
  H 3.877954 1.424092 1.275562
  H 3.846651 -0.180058 1.936665
  H 2.490528 -0.740862 -1.552115
 12
 56.368890
  C 0.859421 0.092613 0.232955
  C 2.433946 0.116581 0.421067
  C 3.229758 0.629385 1.589111
  H 2.627951 1.000401 2.429227
  C 3.009903 -0.347580 -0.682199
  H 4.088473 -0.249134 -0.805918
  H 1.428957 0.387189 1.163754
  H 0.439815 -0.895221 0.118724
  H 0.361122 0.893764 -0.298023
  H 3.893601 1.439101 1.267491
  H 3.869888 -0.177574 1.957040
  H 2.471030 -0.759870 -1.514691
 12
 59.566040
  C 0.841341 0.091269 0.211463
  C 2.444085 0.115342 0.440373
  C 3.246425 0.641887 1.603811
  H 2.650915 1.015809 2.431670
  C 3.008408 -0.351614 -0.670640
  H 4.073364 -0.241577 -0.813928
  H 1.463043 0.341264 1.143469
  H 0.428488 -0.894625 0.063049
  H 0.363843 0.920441 -0.270893
  H 3.901521 1.446926 1.273026
  H 3.883006 -0.154195 1.974391
  H 2.460449 -0.782037 -1.497476
 12
 62.620277
  C 0.826113 0.087080 0.196172
  C 2.448927 0.110142 0.453517
  C 3.258156 0.650906 1.608978
  H 2.662605 1.028893 2.433471
  C 3.003421 -0.354648 -0.660300
  H 4.076196 -0.245320 -0.815017
  H 1.492927 0.292548 1.121581
  H 0.426283 -0.886352 0.021102
  H 0.357068 0.954586 -0.247741
  H 3.908542 1.460485 1.264736
  H 3.901618 -0.142211 1.984431
  H 2.457341 -0.787810 -1.469831
 12
 65.173141
  C 0.816523 0.096658 0.184351
  C 2.458385 0.109444 0.462052
  C 3.268444 0.659672 1.611880
  H 2.669338 1.043678 2.437031
  C 3.007428 -0.357493 -0.653388
  H 4.073205 -0.250195 -0.810025
  H 1.527250 0.254371 1.104967
  H 0.414355 -0.887917 -0.023829
  H 0.366406 0.978581 -0.206503
  H 3.918555 1.472259 1.258689
  H 3.906985 -0.124264 1.988387
  H 2.455163 -0.803213 -1.464610
 12
 67.671991
  C 0.804420 0.096389 0.173892
  C 2.466022 0.100227 0.469196
  C 3.277843 0.668363 1.614778
  H 2.680489 1.056276 2.429087
  C 3.011831 -0.371207 -0.647090
  H 4.077233 -0.252292 -0.812270
  H 1.556719 0.213326 1.093319
  H 0.414344 -0.868821 -0.055100
  H 0.359052 1.007391 -0.180140
  H 3.922558 1.478625 1.252851
  H 3.919018 -0.109457 1.999583
  H 2.458538 -0.807268 -1.454598
 12
 70.091530
  C 0.793450 0.105242 0.163973
  C 2.478451 0.095373 0.475725
  C 3.288595 0.677565 1.613715
  H 2.686345 1.074538 2.426462
  C 3.020523 -0.379790 -0.640085
  H 4.082579 -0.260788 -0.807815
  H 1.587635 0.182042 1.086152
  H 0.401618 -0.861773 -0.089307
  H 0.359789 1.029382 -0.151041
  H 3.929441 1.484638 1.243054
  H 3.933276 -0.097471 2.007561
  H 2.459851 -0.804985 -1.454917
 12
 72.356228
  C 0.777245 0.113883 0.152971
  C 2.493993 0.098447 0.477475
  C 3.301199 0.688492 1.612299
  H 2.695569 1.080961 2.425646
  C 3.030110 -0.372324 -0.642618
  H 4.090974 -0.280110 -0.801978
  H 1.617499 0.148646 1.081128
  H 0.394879 -0.839769 -0.127451
  H 0.344495 1.060741 -0.120361
  H 3.928741 1.495543 1.241504
  H 3.955978 -0.083698 2.008067
  H 2.467177 -0.829562 -1.447863
