13

H 3.5865735432181314 -0.5980495876667539 -0.9862967670347295
C 4.656403 -0.606906 -1.003223
C 5.375702 -1.122273 -2.015809
C 6.814174 -1.132155 -2.034211
C 7.535096 -1.64352 -3.036762
C 9.025229 -1.660823 -3.072307
H 5.162122 -0.172761 -0.149782
H 4.871361 -1.556937 -2.86965
H 7.319327 -0.69708 -1.180577
H 7.038593 -2.080848 -3.894011
H 9.456942 -1.206189 -2.182452
H 9.384588 -1.114916 -3.945983
H 9.386828 -2.687745 -3.14366
