 13
 0.000000
  H 3.589691 -0.602952 -0.995310
  C 4.664246 -0.610227 -1.009192
  C 5.374021 -1.119390 -2.010395
  C 6.816658 -1.131108 -2.032903
  C 7.534383 -1.641090 -3.032539
  C 9.023009 -1.660614 -3.071870
  H 5.164241 -0.176940 -0.156874
  H 4.868952 -1.553482 -2.863734
  H 7.322011 -0.696470 -1.180081
  H 7.036144 -2.078007 -3.888413
  H 9.454269 -1.206084 -2.182879
  H 9.381968 -1.116892 -3.946315
  H 9.383346 -2.686946 -3.144219
 13
 0.188269
  H 3.588073 -0.643146 -0.998561
  C 4.664483 -0.649762 -0.984878
  C 5.381903 -1.054783 -2.027800
  C 6.825479 -1.090746 -2.046369
  C 7.541786 -1.575008 -3.059632
  C 9.030331 -1.652282 -3.081933
  H 5.133911 -0.307655 -0.077249
  H 4.886139 -1.393974 -2.927960
  H 7.327181 -0.701051 -1.167379
  H 7.036341 -1.967456 -3.932139
  H 9.466820 -1.001443 -2.328606
  H 9.416133 -1.374493 -4.061040
  H 9.353160 -2.674667 -2.877037
 13
 1.004094
  H 3.590658 -0.766841 -0.972478
  C 4.666839 -0.745579 -0.963048
  C 5.386936 -0.974260 -2.056183
  C 6.831307 -1.014255 -2.075025
  C 7.540793 -1.521416 -3.082135
  C 9.025076 -1.677116 -3.068763
  H 5.132869 -0.511502 -0.019838
  H 4.892274 -1.201779 -2.992208
  H 7.335942 -0.640334 -1.192775
  H 7.028043 -1.902056 -3.955731
  H 9.498105 -0.876628 -2.502674
  H 9.428155 -1.687799 -4.078554
  H 9.286559 -2.621651 -2.590067
 13
 3.987687
  H 3.654844 -1.068117 -0.928484
  C 4.719469 -0.913140 -0.954668
  C 5.393450 -0.864861 -2.098237
  C 6.837221 -0.816139 -2.160661
  C 7.537156 -1.411568 -3.124851
  C 8.991314 -1.730686 -3.017609
  H 5.194395 -0.708374 -0.008876
  H 4.875556 -1.041237 -3.033099
  H 7.348120 -0.382850 -1.309770
  H 7.011457 -1.849214 -3.964314
  H 9.553616 -0.913393 -2.571385
  H 9.420925 -1.983317 -3.982881
  H 9.074558 -2.597793 -2.360700
 13
 10.614759
  H 3.803762 -1.373554 -0.898240
  C 4.826459 -1.042807 -0.971423
  C 5.397034 -0.807551 -2.149839
  C 6.824504 -0.626396 -2.272031
  C 7.544252 -1.275260 -3.188817
  C 8.930939 -1.762732 -2.936097
  H 5.293716 -0.758933 -0.045202
  H 4.853204 -1.045315 -3.051305
  H 7.329932 -0.182608 -1.422158
  H 7.033225 -1.699567 -4.048537
  H 9.586299 -0.990688 -2.536637
  H 9.375438 -2.208568 -3.816224
  H 8.795483 -2.531942 -2.175150
 13
 20.984002
  H 3.981172 -1.561493 -0.883593
  C 4.985882 -1.185126 -1.009581
  C 5.408156 -0.772428 -2.201452
  C 6.807089 -0.458063 -2.408710
  C 7.548318 -1.176105 -3.267288
  C 8.852690 -1.770271 -2.841134
  H 5.471027 -0.881573 -0.097417
  H 4.820063 -1.016963 -3.076394
  H 7.311029 0.068176 -1.608078
  H 7.006053 -1.755979 -4.003574
  H 9.513139 -1.070042 -2.339905
  H 9.372178 -2.283213 -3.641968
  H 8.488662 -2.496582 -2.108617
 13
 36.291180
  H 4.223759 -1.763048 -0.887847
  C 5.194327 -1.287333 -1.049852
  C 5.465868 -0.767055 -2.236097
  C 6.779378 -0.344174 -2.497463
  C 7.549637 -1.084829 -3.332330
  C 8.710322 -1.777237 -2.735054
  H 5.643931 -0.916755 -0.153038
  H 4.847636 -1.087696 -3.108789
  H 7.301283 0.171430 -1.691289
  H 7.026618 -1.625676 -4.116320
  H 9.408413 -1.154122 -2.191036
  H 9.230277 -2.442662 -3.439161
  H 8.143669 -2.376335 -1.996150
 13
 51.049779
  H 4.543144 -1.978061 -0.911581
  C 5.397526 -1.358757 -1.111634
  C 5.510496 -0.768311 -2.308569
  C 6.776617 -0.231968 -2.593396
  C 7.532599 -1.022464 -3.363177
  C 8.526561 -1.795576 -2.637633
  H 5.841958 -0.932515 -0.217620
  H 4.914882 -1.155711 -3.130249
  H 7.303798 0.249381 -1.738740
  H 7.054358 -1.507539 -4.216010
  H 9.236851 -1.216170 -1.998936
  H 9.041989 -2.577601 -3.212085
  H 7.794238 -2.290262 -1.910127
 13
 69.363216
  H 4.875470 -2.180517 -0.960447
  C 5.637773 -1.446644 -1.180834
  C 5.566015 -0.770731 -2.352282
  C 6.772250 -0.138362 -2.652031
  C 7.528604 -0.986159 -3.394302
  C 8.364623 -1.811124 -2.533196
  H 6.041583 -0.953055 -0.290478
  H 4.979365 -1.196947 -3.175249
  H 7.271032 0.328145 -1.831360
  H 7.091884 -1.448305 -4.265937
  H 9.008179 -1.293170 -1.807807
  H 8.831366 -2.658329 -2.989265
  H 7.440271 -2.200582 -1.796034
 13
 79.087860
  H 5.025125 -2.261679 -0.964761
  C 5.755680 -1.502104 -1.199878
  C 5.581487 -0.778067 -2.393351
  C 6.782334 -0.111045 -2.684218
  C 7.573570 -1.013354 -3.413023
  C 8.298113 -1.803174 -2.501703
  H 6.143267 -0.991130 -0.329067
  H 5.011531 -1.223252 -3.197886
  H 7.271874 0.366751 -1.838524
  H 7.167722 -1.479872 -4.300796
  H 8.874250 -1.315711 -1.727115
  H 8.758664 -2.704205 -2.878684
  H 7.076065 -2.143219 -1.640542
 13
 68.398058
  H 4.941676 -2.251490 -0.885895
  C 5.702720 -1.527379 -1.099269
  C 5.617875 -0.822785 -2.406367
  C 6.824015 -0.152895 -2.681778
  C 7.642453 -1.061166 -3.422217
  C 8.397593 -1.800689 -2.594095
  H 5.948601 -0.898588 -0.260006
  H 5.104401 -1.306452 -3.185602
  H 7.295813 0.358403 -1.837138
  H 7.217451 -1.499070 -4.346465
  H 8.905338 -1.338453 -1.784780
  H 8.885225 -2.727047 -2.965919
  H 6.722977 -2.152856 -1.409701
 13
 49.481506
  H 4.709058 -2.114813 -0.827773
  C 5.591867 -1.521501 -1.013552
  C 5.645017 -0.881315 -2.357083
  C 6.824045 -0.263522 -2.642202
  C 7.677373 -1.102998 -3.454641
  C 8.546116 -1.801733 -2.717747
  H 5.822787 -0.856173 -0.186054
  H 5.118811 -1.385989 -3.153092
  H 7.310906 0.259593 -1.819935
  H 7.265116 -1.509885 -4.370336
  H 9.007937 -1.365995 -1.847636
  H 9.073245 -2.650978 -3.131689
  H 6.477196 -2.209589 -1.149162
 13
 34.652458
  H 4.479160 -1.976133 -0.777030
  C 5.436989 -1.482654 -0.910798
  C 5.666739 -0.977305 -2.297117
  C 6.853596 -0.403310 -2.580768
  C 7.720027 -1.149599 -3.473302
  C 8.702163 -1.797591 -2.851207
  H 5.608837 -0.743982 -0.134713
  H 5.144937 -1.498426 -3.089348
  H 7.345700 0.143372 -1.775333
  H 7.316811 -1.499193 -4.412610
  H 9.125714 -1.410621 -1.940015
  H 9.274680 -2.575240 -3.332146
  H 6.233355 -2.250186 -0.875207
 13
 21.110223
  H 4.252680 -1.819343 -0.780399
  C 5.264383 -1.425707 -0.842488
  C 5.688739 -1.104616 -2.237449
  C 6.887850 -0.568924 -2.480335
  C 7.757251 -1.198034 -3.460789
  C 8.849145 -1.777740 -2.976899
  H 5.390819 -0.593386 -0.154923
  H 5.216785 -1.682429 -3.022354
  H 7.381489 -0.023730 -1.679735
  H 7.327587 -1.498926 -4.405357
  H 9.271093 -1.453468 -2.040938
  H 9.451534 -2.463621 -3.547850
  H 5.979860 -2.216095 -0.577054
 13
 16.855510
  H 4.131806 -1.621415 -0.717870
  C 5.192020 -1.383848 -0.769083
  C 5.736340 -1.306829 -2.143862
  C 6.825082 -0.624315 -2.480762
  C 7.738323 -1.190930 -3.498723
  C 8.823986 -1.750174 -3.012933
  H 5.466320 -0.538782 -0.153804
  H 5.263229 -1.965978 -2.867567
  H 7.329357 -0.034722 -1.726420
  H 7.438126 -1.264957 -4.526340
  H 9.068281 -1.653096 -1.968865
  H 9.538847 -2.271763 -3.627105
  H 5.741543 -2.243053 -0.361286
