 13
 0.000000
  C 1.011106 0.138580 0.395915
  C 2.450986 0.102918 0.306952
  H 3.034368 0.443349 1.154299
  C 3.108610 -0.350754 -0.822673
  C 4.513421 -0.392271 -0.927384
  C 5.137493 -0.843858 -2.052581
  H 4.570560 -1.185491 -2.903354
  H 6.211202 -0.874018 -2.127901
  H 0.653542 0.519897 1.345950
  H 0.591136 -0.859012 0.210566
  H 0.591129 0.731283 -0.427744
  H 2.525601 -0.691432 -1.670030
  H 5.100823 -0.053199 -0.083504
 13
 11.107258
  C 1.071017 0.158936 0.446744
  C 2.516189 0.040053 0.149988
  H 3.183773 0.359759 0.945372
  C 2.970708 -0.428183 -1.016215
  C 4.345153 -0.393687 -0.930880
  C 5.159691 -0.806301 -1.958729
  H 4.746309 -1.177012 -2.882241
  H 6.231948 -0.775273 -1.881232
  H 0.869488 0.556219 1.436383
  H 0.585639 -0.819145 0.317681
  H 0.585208 0.776056 -0.322780
  H 2.392835 -0.769389 -1.865051
  H 4.833810 -0.033667 -0.034667
 13
 41.442114
  C 1.104655 0.170186 0.474973
  C 2.590676 -0.001812 0.045859
  H 3.233147 0.316441 0.838218
  C 2.887533 -0.478949 -1.142672
  C 4.239866 -0.388965 -0.919004
  C 5.159868 -0.777839 -1.887488
  H 4.843120 -1.162355 -2.844585
  H 6.224277 -0.711151 -1.722711
  H 1.006563 0.570211 1.471729
  H 0.594147 -0.789766 0.390702
  H 0.594272 0.805787 -0.249557
  H 2.314003 -0.817085 -1.984050
  H 4.715373 -0.031427 -0.029867
 13
 75.373022
  C 1.087897 0.173944 0.492998
  C 2.667113 -0.044208 -0.056239
  H 3.207009 0.306064 0.805046
  C 2.813580 -0.513294 -1.245328
  C 4.218332 -0.385902 -0.905942
  C 5.137240 -0.756467 -1.820237
  H 4.855285 -1.142954 -2.785407
  H 6.186774 -0.665635 -1.611176
  H 1.121216 0.577363 1.491621
  H 0.621379 -0.803190 0.464322
  H 0.627457 0.858791 -0.208478
  H 2.275525 -0.855862 -2.102745
  H 4.718348 -0.021754 -0.018143
 13
 97.349409
  C 1.032074 0.176536 0.518942
  C 2.784064 -0.040211 -0.082033
  H 3.166121 0.335025 0.840558
  C 2.802215 -0.503878 -1.271922
  C 4.241734 -0.368302 -0.873790
  C 5.126485 -0.761323 -1.807697
  H 4.832691 -1.156321 -2.769327
  H 6.188311 -0.687447 -1.626007
  H 1.094332 0.575643 1.516324
  H 0.621752 -0.820055 0.477665
  H 0.613071 0.865587 -0.196495
  H 2.290095 -0.849100 -2.136385
  H 4.786087 -0.005551 -0.008217
 13
 111.562277
  C 0.847241 0.216032 0.590740
  C 2.929296 -0.059041 -0.095415
  H 3.144833 0.323012 0.868053
  C 2.833341 -0.520936 -1.272074
  C 4.344496 -0.375701 -0.876933
  C 5.183135 -0.776277 -1.838165
  H 4.859829 -1.151552 -2.795069
  H 6.252353 -0.698667 -1.699824
  H 0.961400 0.610696 1.585533
  H 0.502771 -0.796692 0.518302
  H 0.507101 0.899268 -0.157496
  H 2.326400 -0.869913 -2.139207
  H 4.919877 -0.008934 -0.023022
 13
 114.053911
  C 0.503481 0.276943 0.740509
  C 3.092138 -0.065740 -0.135314
  H 3.203331 0.293697 0.861348
  C 2.926282 -0.530617 -1.285258
  C 4.518823 -0.379514 -0.909668
  C 5.288362 -0.803714 -1.906181
  H 4.921701 -1.176009 -2.848930
  H 6.361120 -0.749455 -1.811469
  H 0.694980 0.659792 1.716966
  H 0.263898 -0.759357 0.625779
  H 0.257733 0.963611 -0.048948
  H 2.491765 -0.895907 -2.185052
  H 5.092470 -0.005330 -0.062957
 13
 114.086114
  C 0.203409 0.316638 0.862316
  C 3.263574 -0.067221 -0.164210
  H 3.230093 0.296762 0.842935
  C 3.009156 -0.515008 -1.287706
  C 4.686960 -0.382888 -0.946408
  C 5.389962 -0.834416 -1.977117
  H 4.981005 -1.213243 -2.887276
  H 6.472053 -0.808588 -1.920192
  H 0.416731 0.701629 1.837640
  H 0.037388 -0.718804 0.732622
  H 0.007715 0.992538 0.054000
  H 2.610746 -0.878528 -2.198665
  H 5.266967 -0.023131 -0.103103
 13
 114.844090
  C 0.023069 0.355731 0.948709
  C 3.371802 -0.081702 -0.200189
  H 3.315973 0.268679 0.805932
  C 3.053231 -0.523604 -1.323077
  C 4.757817 -0.391544 -0.962088
  C 5.457917 -0.848033 -1.988683
  H 5.048297 -1.179618 -2.927482
  H 6.530162 -0.832080 -1.931306
  H 0.234314 0.748353 1.915454
  H -0.140098 -0.693332 0.824517
  H -0.177533 1.025120 0.132566
  H 2.647813 -0.917037 -2.222531
  H 5.349808 -0.029268 -0.118965
 13
 116.527603
  C -0.137608 0.385385 1.028717
  C 3.450911 -0.107950 -0.249317
  H 3.363654 0.243585 0.753842
  C 3.072441 -0.535751 -1.353658
  C 4.807308 -0.392645 -0.969596
  C 5.505148 -0.844881 -1.991224
  H 5.099945 -1.209769 -2.917370
  H 6.580501 -0.819727 -1.932375
  H 0.097942 0.768690 1.994939
  H -0.281824 -0.659011 0.893188
  H -0.313829 1.060348 0.211892
  H 2.690325 -0.921813 -2.268337
  H 5.389339 -0.022850 -0.123697
 13
 115.801736
  C -0.435778 0.433739 1.161902
  C 3.559502 -0.125143 -0.280568
  H 3.410693 0.223872 0.716184
  C 3.154450 -0.534683 -1.380424
  C 4.937024 -0.398831 -0.998216
  C 5.600321 -0.872109 -2.036375
  H 5.174374 -1.258371 -2.942873
  H 6.681021 -0.855557 -2.001545
  H -0.186464 0.822412 2.121270
  H -0.510389 -0.620041 1.013895
  H -0.593175 1.103277 0.334122
  H 2.806058 -0.893386 -2.319588
  H 5.546304 -0.031633 -0.166511
 13
 112.474411
  C -0.518727 0.444135 1.194652
  C 3.524175 -0.122856 -0.191103
  H 3.460701 0.203793 0.820032
  C 3.352520 -0.478639 -1.368567
  C 4.960977 -0.429228 -1.095611
  C 5.653504 -0.938931 -2.104158
  H 5.220805 -1.408695 -2.968916
  H 6.729041 -0.877972 -2.084835
  H -0.369239 0.812589 2.185563
  H -0.638541 -0.604546 1.031931
  H -0.695732 1.131435 0.397022
  H 2.943118 -0.789221 -2.299879
  H 5.521338 0.051683 -0.294859
