 20
 0.000000
  C 1.007712 -0.071118 0.048444
  C 2.503867 -0.082259 0.026573
  C 3.219102 -0.595283 -0.980579
  C 4.656991 -0.606530 -1.002657
  C 5.376423 -1.122096 -2.014796
  C 6.814811 -1.131582 -2.033419
  C 7.534336 -1.642940 -3.037310
  C 9.024562 -1.660993 -3.072746
  H 0.645840 0.395231 0.963957
  H 0.611997 -1.085999 0.009880
  H 0.611998 0.494397 -0.795159
  H 3.004661 0.353146 0.881349
  H 2.707261 -1.028644 -1.831329
  H 5.162404 -0.171783 -0.149182
  H 4.872332 -1.557110 -2.868806
  H 7.320919 -0.696878 -1.180024
  H 7.037960 -2.079871 -3.895062
  H 9.456629 -1.207403 -2.182276
  H 9.384795 -1.114713 -3.945992
  H 9.384800 -2.688551 -3.144315
 20
 0.516564
  C 0.991493 -0.133959 0.038458
  C 2.487933 -0.114352 0.030209
  C 3.230719 -0.561321 -0.985082
  C 4.667094 -0.541829 -0.998801
  C 5.413767 -1.000712 -2.018350
  C 6.851182 -1.012339 -2.033304
  C 7.538781 -1.650340 -2.982554
  C 9.021578 -1.729755 -3.079731
  H 0.601106 0.272604 0.968418
  H 0.619533 -1.152115 -0.073575
  H 0.594347 0.457570 -0.787060
  H 2.975226 0.287867 0.909100
  H 2.743577 -0.969907 -1.861925
  H 5.152795 -0.130584 -0.122484
  H 4.923605 -1.392084 -2.901810
  H 7.359038 -0.492446 -1.232432
  H 6.960997 -2.170372 -3.736168
  H 9.494159 -1.184564 -2.264534
  H 9.362955 -1.313263 -4.028177
  H 9.348946 -2.769504 -3.044485
 20
 1.235937
  C 0.984890 -0.157771 0.012594
  C 2.478669 -0.129183 0.051562
  C 3.255622 -0.520843 -0.960477
  C 4.689658 -0.494543 -0.927502
  C 5.467284 -0.906725 -1.940918
  C 6.893267 -0.964708 -2.017348
  C 7.504350 -1.662372 -2.982099
  C 8.976983 -1.798673 -3.140066
  H 0.560124 0.201329 0.947783
  H 0.627037 -1.166328 -0.162369
  H 0.608023 0.471819 -0.806660
  H 2.936950 0.239947 0.961896
  H 2.800391 -0.892356 -1.871053
  H 5.147058 -0.119526 -0.017737
  H 4.963356 -1.256411 -2.837357
  H 7.465692 -0.440567 -1.263992
  H 6.893772 -2.199494 -3.710105
  H 9.503140 -1.250899 -2.367623
  H 9.288375 -1.420001 -4.113354
  H 9.269662 -2.850749 -3.089461
 20
 2.700245
  C 0.979818 -0.131544 -0.039785
  C 2.459166 -0.351732 0.060187
  C 3.280201 -0.387639 -0.994026
  C 4.697293 -0.599257 -0.901663
  C 5.513029 -0.658856 -1.962677
  C 6.922877 -0.960833 -1.955802
  C 7.495687 -1.550190 -3.006452
  C 8.931470 -1.923751 -3.111130
  H 0.515140 -0.142088 0.938962
  H 0.515703 -0.905503 -0.652017
  H 0.766525 0.826712 -0.511326
  H 2.865252 -0.492642 1.052735
  H 2.877633 -0.254132 -1.988104
  H 5.103430 -0.727817 0.092813
  H 5.088102 -0.488153 -2.948787
  H 7.496755 -0.709803 -1.077518
  H 6.855587 -1.827534 -3.842176
  H 9.475659 -1.637956 -2.217022
  H 9.384124 -1.434269 -3.973827
  H 9.032934 -2.997945 -3.256805
 20
 5.662020
  C 1.022412 -0.289961 0.043830
  C 2.517961 -0.362862 0.044454
  C 3.262391 -0.380508 -1.062476
  C 4.700267 -0.448634 -1.063493
  C 5.442946 -0.520499 -2.174018
  C 6.890303 -0.699885 -2.194523
  C 7.449759 -1.688165 -2.882987
  C 8.911458 -1.981775 -2.954799
  H 0.630758 -0.256860 1.056030
  H 0.596275 -1.155915 -0.465919
  H 0.682505 0.598151 -0.486640
  H 3.002911 -0.396681 1.008011
  H 2.782095 -0.348520 -2.031672
  H 5.185192 -0.475277 -0.092282
  H 4.965661 -0.416427 -3.142374
  H 7.497136 0.000685 -1.632763
  H 6.785980 -2.374496 -3.395205
  H 9.483525 -1.253832 -2.384104
  H 9.251018 -1.964364 -3.991858
  H 9.114686 -2.975378 -2.558731
 20
 11.182960
  C 1.057883 -0.456239 -0.042970
  C 2.552017 -0.411600 0.001917
  C 3.323867 -0.328775 -1.081870
  C 4.764423 -0.315242 -1.046348
  C 5.537058 -0.266491 -2.136615
  C 6.983586 -0.511532 -2.171244
  C 7.362362 -1.628101 -2.777007
  C 8.747046 -2.147978 -2.934529
  H 0.639437 -0.561669 0.950745
  H 0.716186 -1.294931 -0.655720
  H 0.662441 0.452442 -0.489227
  H 3.015109 -0.488890 0.979772
  H 2.866627 -0.268252 -2.063112
  H 5.227303 -0.468284 -0.073015
  H 5.122605 0.134518 -3.058214
  H 7.672563 0.201148 -1.737904
  H 6.530643 -2.219550 -3.153160
  H 9.468656 -1.434130 -2.551503
  H 8.964091 -2.337105 -3.985465
  H 8.860926 -3.089818 -2.398346
 20
 23.340126
  C 1.130137 -0.645908 -0.140056
  C 2.600756 -0.412110 -0.044318
  C 3.405440 -0.302965 -1.101926
  C 4.834867 -0.148180 -1.017981
  C 5.644757 -0.093098 -2.083990
  C 7.093054 -0.349291 -2.101362
  C 7.288395 -1.513288 -2.720249
  C 8.522966 -2.301185 -2.930323
  H 0.679533 -0.714364 0.845168
  H 0.919484 -1.570762 -0.682502
  H 0.647220 0.167900 -0.679297
  H 3.031011 -0.400238 0.950162
  H 2.978290 -0.313687 -2.102982
  H 5.275076 -0.253701 -0.028157
  H 5.288850 0.442385 -2.959202
  H 7.834784 0.333875 -1.714277
  H 6.281833 -1.874227 -2.998536
  H 9.373202 -1.826688 -2.433614
  H 8.742679 -2.395872 -3.991944
  H 8.393712 -3.309856 -2.538837
 20
 46.709538
  C 1.198022 -0.733002 -0.152034
  C 2.677151 -0.513328 -0.068417
  C 3.460312 -0.373275 -1.141496
  C 4.856871 -0.061913 -1.088751
  C 5.668396 -0.066047 -2.173183
  C 7.128949 -0.241026 -2.120937
  C 7.259445 -1.462798 -2.645665
  C 8.400710 -2.364137 -2.876272
  H 0.752998 -0.762491 0.839659
  H 0.968326 -1.673639 -0.656296
  H 0.723185 0.057264 -0.730469
  H 3.101381 -0.387817 0.924963
  H 3.020266 -0.459768 -2.126778
  H 5.314725 -0.043814 -0.100289
  H 5.330071 0.515419 -3.015120
  H 7.832407 0.468252 -1.739050
  H 6.085165 -1.616802 -2.846115
  H 9.276392 -1.979887 -2.370592
  H 8.612002 -2.466466 -3.948811
  H 8.180435 -3.355350 -2.475829
 20
 74.828007
  C 1.186442 -0.692714 -0.109707
  C 2.671484 -0.536151 -0.063131
  C 3.443539 -0.446686 -1.157561
  C 4.838302 -0.152477 -1.140666
  C 5.634892 -0.186655 -2.270128
  C 7.110652 -0.220088 -2.131433
  C 7.346754 -1.437931 -2.591721
  C 8.471869 -2.345775 -2.856104
  H 0.768285 -0.768606 0.888186
  H 0.909494 -1.591247 -0.667018
  H 0.725318 0.157453 -0.617970
  H 3.121227 -0.382234 0.908197
  H 2.983253 -0.564143 -2.129149
  H 5.321756 -0.081918 -0.171699
  H 5.280829 0.369362 -3.132734
  H 7.743464 0.550589 -1.721802
  H 5.868506 -1.481192 -2.788088
  H 9.412992 -1.874026 -2.564178
  H 8.525159 -2.604690 -3.915044
  H 8.360821 -3.266037 -2.278816
 20
 81.285766
  C 1.181271 -0.708329 -0.063208
  C 2.653332 -0.461014 -0.034803
  C 3.430710 -0.464513 -1.142086
  C 4.802843 -0.165692 -1.156916
  C 5.602866 -0.249828 -2.334508
  C 7.101656 -0.237168 -2.194102
  C 7.423164 -1.422758 -2.635442
  C 8.542550 -2.343340 -2.840898
  H 0.753439 -0.642646 0.933398
  H 0.963365 -1.699425 -0.467982
  H 0.678292 0.018564 -0.702899
  H 3.103946 -0.255182 0.924134
  H 2.963172 -0.668952 -2.099188
  H 5.300970 -0.025649 -0.208717
  H 5.255490 0.316055 -3.196847
  H 7.687573 0.586115 -1.810316
  H 5.657515 -1.378030 -2.755889
  H 9.486758 -1.884429 -2.530795
  H 8.620529 -2.624411 -3.891643
  H 8.393048 -3.253381 -2.257890
 20
 78.982296
  C 1.173735 -0.646869 0.040422
  C 2.643405 -0.395225 -0.004738
  C 3.386022 -0.514223 -1.141035
  C 4.737430 -0.204899 -1.240061
  C 5.504198 -0.394379 -2.466862
  C 7.009128 -0.336481 -2.304983
  C 7.521186 -1.472528 -2.653895
  C 8.709438 -2.303279 -2.773957
  H 0.777581 -0.476671 1.035417
  H 0.948043 -1.677298 -0.250721
  H 0.645957 0.006054 -0.656911
  H 3.126426 -0.083162 0.907685
  H 2.879574 -0.821090 -2.051167
  H 5.274971 0.047039 -0.336087
  H 5.179101 0.213834 -3.310586
  H 7.486422 0.564831 -1.929653
  H 5.410303 -1.458830 -2.828620
  H 9.607292 -1.761865 -2.449117
  H 8.853426 -2.618845 -3.809336
  H 8.606729 -3.196652 -2.156095
 20
 78.624043
  C 1.095586 -0.375983 0.093783
  C 2.580689 -0.345267 0.039493
  C 3.290908 -0.583723 -1.109825
  C 4.663993 -0.495646 -1.219719
  C 5.393039 -0.760174 -2.479998
  C 6.881160 -0.637042 -2.323639
  C 7.631605 -1.604210 -2.742481
  C 9.011357 -2.064398 -2.841564
  H 0.730910 -0.099796 1.081854
  H 0.721704 -1.373562 -0.145342
  H 0.664537 0.310687 -0.641048
  H 3.113463 -0.101429 0.944189
  H 2.733556 -0.818765 -2.004594
  H 5.249891 -0.289009 -0.335599
  H 5.056897 -0.094159 -3.279972
  H 7.233750 0.269297 -1.815469
  H 5.195515 -1.790870 -2.837317
  H 9.710481 -1.303514 -2.476715
  H 9.265899 -2.294039 -3.876288
  H 9.150825 -2.967531 -2.248138
 20
 58.392063
  C 1.812297 -1.306665 0.123876
  C 2.820568 -0.296529 -0.306282
  C 3.737400 -0.524018 -1.266728
  C 4.664684 0.431005 -1.733420
  C 5.651222 0.145185 -2.690512
  C 7.137436 -0.121030 -1.876704
  C 7.752074 -1.206669 -1.993186
  C 7.760895 -2.565718 -2.509516
  H 1.150548 -0.901093 0.883676
  H 2.303388 -2.190761 0.531530
  H 1.206948 -1.634417 -0.723102
  H 2.792564 0.668385 0.180535
  H 3.750994 -1.493560 -1.750377
  H 4.698575 1.382426 -1.219010
  H 5.960568 0.963260 -3.329603
  H 7.395702 0.765793 -1.348348
  H 5.469296 -0.764093 -3.257215
  H 8.624867 -3.109134 -2.121265
  H 7.829223 -2.557514 -3.600503
  H 6.856513 -3.103988 -2.212237
