 29
 0.000000
  H 1.468827 0.163260 0.462174
  C 2.547735 0.146186 0.418152
  C 3.305028 0.616250 1.585089
  C 2.451416 1.087713 2.758021
  C 3.323254 1.555644 3.919212
  C 3.108725 -0.324529 -0.753288
  C 4.484044 -0.419763 -0.991675
  C 5.142155 -0.877564 -2.134292
  C 4.610275 -1.393538 -3.422286
  C 3.114379 -1.500015 -3.689663
  C 2.875514 -2.060790 -5.089545
  O 6.457245 -0.882305 -2.146628
  H 3.965396 1.435866 1.276889
  H 3.966520 -0.187565 1.930182
  H 1.809175 0.275067 3.102146
  H 1.808077 1.911482 2.443607
  H 3.958396 0.749591 4.279547
  H 2.702401 1.888410 4.747195
  H 3.957216 2.387365 3.620380
  H 2.425115 -0.634560 -1.524364
  H 5.122266 -0.093026 -0.177231
  H 5.060746 -2.383858 -3.558738
  H 5.061520 -0.771953 -4.204772
  H 2.646066 -0.516991 -3.630388
  H 2.645309 -2.169785 -2.968182
  H 3.310624 -1.415156 -5.848670
  H 1.809258 -2.138804 -5.285494
  H 3.309923 -3.052284 -5.192729
  H 6.856471 -0.551072 -1.318866
 29
 1.275281
  H 1.533261 -0.217168 0.659284
  C 2.601363 -0.110108 0.521078
  C 3.330003 0.590133 1.584477
  C 2.442376 1.083833 2.723820
  C 3.260396 1.795997 3.796205
  C 3.143092 -0.633640 -0.632623
  C 4.504709 -0.582628 -0.939466
  C 5.159594 -0.990569 -2.101230
  C 4.609097 -1.394086 -3.417898
  C 3.109174 -1.430985 -3.676474
  C 2.844212 -1.791279 -5.136468
  O 6.475491 -0.930288 -2.137026
  H 3.877361 1.441101 1.159839
  H 4.105148 -0.070168 1.994186
  H 1.917363 0.239465 3.174719
  H 1.689268 1.770594 2.332488
  H 4.002196 1.127707 4.227668
  H 2.614270 2.142200 4.598875
  H 3.774068 2.661060 3.382795
  H 2.467154 -1.119120 -1.314004
  H 5.147200 -0.128222 -0.196409
  H 5.035053 -2.380419 -3.639019
  H 5.080822 -0.730082 -4.152954
  H 2.664793 -0.456271 -3.472147
  H 2.633557 -2.185159 -3.049442
  H 3.285665 -1.057184 -5.806306
  H 1.775075 -1.822003 -5.329431
  H 3.257943 -2.767439 -5.378332
  H 6.918020 -0.976153 -1.271691
 29
 6.457960
  H 1.509599 -0.152407 0.650856
  C 2.579189 -0.061456 0.517507
  C 3.317111 0.602846 1.596418
  C 2.436671 1.100706 2.738480
  C 3.266324 1.769255 3.829175
  C 3.114918 -0.573474 -0.643860
  C 4.479743 -0.533976 -0.948001
  C 5.142282 -0.932090 -2.105328
  C 4.611757 -1.349695 -3.421978
  C 3.115481 -1.448513 -3.682863
  C 2.865190 -1.853441 -5.133724
  O 6.466155 -0.796848 -2.125782
  H 3.892264 1.443401 1.188828
  H 4.072843 -0.083893 1.998433
  H 1.884285 0.264017 3.170297
  H 1.706450 1.815724 2.354822
  H 3.985701 1.072420 4.253250
  H 2.624260 2.118896 4.633568
  H 3.807488 2.626695 3.435619
  H 2.433114 -1.033289 -1.337852
  H 5.138327 -0.096602 -0.208647
  H 5.079704 -2.315828 -3.648685
  H 5.058452 -0.664763 -4.155519
  H 2.634744 -0.486237 -3.503273
  H 2.668020 -2.203043 -3.035578
  H 3.283684 -1.122157 -5.821114
  H 1.797962 -1.923558 -5.327103
  H 3.310420 -2.821434 -5.351151
  H 6.984906 -1.252109 -1.442015
 29
 10.561703
  H 1.477035 -0.012298 0.607809
  C 2.551820 0.036940 0.493520
  C 3.301559 0.613996 1.611388
  C 2.430115 1.102676 2.763660
  C 3.275028 1.676383 3.895878
  C 3.083148 -0.442921 -0.684253
  C 4.453821 -0.444947 -0.967705
  C 5.127698 -0.856503 -2.111064
  C 4.621142 -1.334661 -3.413754
  C 3.130037 -1.493104 -3.675256
  C 2.896847 -1.975484 -5.105235
  O 6.458552 -0.684382 -2.081887
  H 3.926394 1.440533 1.250555
  H 4.017366 -0.127238 1.989944
  H 1.828896 0.276639 3.148144
  H 1.743312 1.871406 2.404412
  H 3.951162 0.924658 4.296571
  H 2.638722 2.021108 4.706892
  H 3.865513 2.521942 3.550660
  H 2.393515 -0.838145 -1.409821
  H 5.127300 -0.071097 -0.206365
  H 5.119452 -2.291337 -3.616850
  H 5.045550 -0.654250 -4.165339
  H 2.619553 -0.538330 -3.545102
  H 2.703531 -2.227218 -2.990807
  H 3.297546 -1.267167 -5.826500
  H 1.832768 -2.084335 -5.297940
  H 3.369060 -2.940351 -5.274355
  H 7.024535 -1.394895 -1.747933
 29
 7.476537
  H 1.458809 0.174034 0.537509
  C 2.537033 0.168441 0.448330
  C 3.291197 0.643667 1.610753
  C 2.420803 1.120566 2.768938
  C 3.269166 1.585709 3.947373
  C 3.069071 -0.276537 -0.742794
  C 4.442644 -0.337322 -0.997487
  C 5.126225 -0.775090 -2.128884
  C 4.634263 -1.324020 -3.412795
  C 3.144018 -1.513521 -3.665287
  C 2.918884 -2.080947 -5.065029
  O 6.445679 -0.611432 -2.043298
  H 3.969469 1.450640 1.307373
  H 3.955836 -0.155620 1.963558
  H 1.765506 0.311206 3.096231
  H 1.786763 1.944809 2.436773
  H 3.892553 0.776830 4.321389
  H 2.634095 1.923823 4.762159
  H 3.914144 2.412766 3.659532
  H 2.375841 -0.591310 -1.503581
  H 5.122817 -0.047923 -0.204087
  H 5.136245 -2.285984 -3.577469
  H 5.043743 -0.666741 -4.192074
  H 2.624062 -0.558161 -3.593263
  H 2.724111 -2.209845 -2.938499
  H 3.314890 -1.412025 -5.825594
  H 1.856347 -2.210341 -5.253173
  H 3.400007 -3.049830 -5.176818
  H 7.029178 -1.382306 -2.130543
 29
 1.899951
  H 1.450644 0.203701 0.537534
  C 2.528866 0.176786 0.457443
  C 3.283680 0.635359 1.628072
  C 2.411077 1.125936 2.779490
  C 3.257709 1.570152 3.967197
  C 3.063576 -0.275231 -0.729019
  C 4.435106 -0.364385 -0.967294
  C 5.129251 -0.797936 -2.098946
  C 4.650532 -1.338150 -3.392364
  C 3.158469 -1.522883 -3.647612
  C 2.936790 -2.097837 -5.044876
  O 6.431109 -0.657573 -1.960570
  H 3.978843 1.430421 1.332716
  H 3.928062 -0.178015 1.984966
  H 1.737702 0.327618 3.098107
  H 1.796373 1.963048 2.444260
  H 3.861580 0.747564 4.343080
  H 2.622364 1.917856 4.777717
  H 3.921642 2.385111 3.687734
  H 2.371650 -0.570210 -1.499042
  H 5.117160 -0.116708 -0.161971
  H 5.143220 -2.305269 -3.552854
  H 5.055451 -0.677358 -4.170263
  H 2.641955 -0.565284 -3.583222
  H 2.735027 -2.213478 -2.917896
  H 3.338421 -1.435177 -5.808004
  H 1.874476 -2.223982 -5.236337
  H 3.413719 -3.069833 -5.148608
  H 7.009161 -1.225757 -2.501652
 29
 3.685289
  H 1.457233 -0.267437 0.740652
  C 2.527261 -0.192953 0.601287
  C 3.278972 0.535778 1.631049
  C 2.403661 1.162092 2.712968
  C 3.244961 1.890754 3.755053
  C 3.068277 -0.778142 -0.523676
  C 4.426514 -0.724931 -0.837399
  C 5.124775 -1.035656 -2.011066
  C 4.671850 -1.334383 -3.386286
  C 3.171360 -1.441791 -3.642514
  C 2.903269 -1.712852 -5.120135
  O 6.411695 -0.902756 -1.787514
  H 3.888936 1.315644 1.161622
  H 3.998794 -0.148561 2.096794
  H 1.814022 0.386863 3.206187
  H 1.705669 1.867692 2.258421
  H 3.922456 1.203210 4.256162
  H 2.607290 2.344308 4.509548
  H 3.834697 2.680056 3.294539
  H 2.404227 -1.325447 -1.172848
  H 5.193671 -0.477507 -0.104792
  H 5.142987 -2.274039 -3.699498
  H 5.088293 -0.554777 -4.035439
  H 2.675676 -0.513290 -3.357432
  H 2.750099 -2.258948 -3.057049
  H 3.307448 -0.917536 -5.742099
  H 1.834046 -1.772295 -5.305267
  H 3.350483 -2.653939 -5.431852
  H 7.088867 -1.252455 -2.396484
 29
 14.493474
  H 1.438372 -0.407358 0.831594
  C 2.501778 -0.304210 0.652177
  C 3.275126 0.451725 1.642155
  C 2.427357 1.162756 2.687325
  C 3.278541 1.974401 3.651085
  C 3.020246 -0.894997 -0.472562
  C 4.350194 -0.805412 -0.825701
  C 5.076252 -1.083349 -1.995634
  C 4.697954 -1.337541 -3.391513
  C 3.200996 -1.402707 -3.655695
  C 2.909387 -1.600011 -5.136037
  O 6.337741 -0.907947 -1.673267
  H 3.872700 1.204874 1.109541
  H 4.013620 -0.195987 2.124049
  H 1.818759 0.447963 3.241225
  H 1.723104 1.835232 2.184466
  H 3.948066 1.330342 4.216813
  H 2.648333 2.510158 4.355196
  H 3.875911 2.706211 3.115355
  H 2.365058 -1.503279 -1.080821
  H 5.244618 -0.610388 -0.194045
  H 5.156080 -2.273366 -3.709068
  H 5.132041 -0.534268 -3.995619
  H 2.724917 -0.479087 -3.316344
  H 2.749286 -2.215142 -3.087486
  H 3.330947 -0.791738 -5.727487
  H 1.836859 -1.613613 -5.309700
  H 3.317506 -2.543145 -5.493612
  H 7.094749 -1.284331 -2.162236
 29
 43.228983
  H 1.361201 -0.360454 0.950292
  C 2.414199 -0.287854 0.717747
  C 3.244727 0.520292 1.623218
  C 2.457407 1.197729 2.742434
  C 3.378305 2.000495 3.654794
  C 2.882059 -0.942082 -0.392952
  C 4.195325 -0.887697 -0.832347
  C 4.952969 -1.103964 -1.974138
  C 4.687250 -1.295961 -3.408805
  C 3.201154 -1.422807 -3.747515
  C 3.006449 -1.607024 -5.248418
  O 6.210623 -0.960641 -1.541182
  H 3.786675 1.271514 1.039680
  H 4.012044 -0.120549 2.070942
  H 1.935632 0.442899 3.333609
  H 1.708554 1.865660 2.312265
  H 4.124050 1.362675 4.122032
  H 2.802745 2.489833 4.436914
  H 3.886563 2.781590 3.093528
  H 2.196403 -1.580547 -0.937793
  H 5.366229 -0.724084 -0.293071
  H 5.207543 -2.200921 -3.741971
  H 5.119422 -0.466389 -3.977665
  H 2.675837 -0.522510 -3.426697
  H 2.778986 -2.281911 -3.226322
  H 3.426754 -0.765106 -5.794823
  H 1.950976 -1.677411 -5.495401
  H 3.505774 -2.508531 -5.596448
  H 7.002542 -1.397639 -1.923397
 29
 63.470916
  H 1.355985 -0.503626 1.076335
  C 2.391630 -0.417707 0.782820
  C 3.249594 0.471318 1.596736
  C 2.483515 1.229014 2.678034
  C 3.412081 2.125754 3.489257
  C 2.822120 -1.126139 -0.297656
  C 4.101059 -1.066170 -0.828253
  C 4.865786 -1.207122 -1.896015
  C 4.671316 -1.279553 -3.361368
  C 3.195782 -1.350564 -3.754129
  C 3.037793 -1.422173 -5.268455
  O 6.195257 -1.105567 -1.384168
  H 3.747665 1.185650 0.932346
  H 4.042704 -0.114419 2.071179
  H 1.995099 0.519114 3.348597
  H 1.703991 1.840174 2.218317
  H 4.178752 1.537695 3.987938
  H 2.852515 2.664139 4.250464
  H 3.899795 2.857253 2.848629
  H 2.138825 -1.847484 -0.739545
  H 5.600907 -0.953383 -0.333158
  H 5.180359 -2.176140 -3.728647
  H 5.138907 -0.416046 -3.843630
  H 2.673918 -0.470122 -3.376620
  H 2.741066 -2.233824 -3.304832
  H 3.480423 -0.550571 -5.745975
  H 1.985705 -1.456714 -5.539719
  H 3.518191 -2.312840 -5.667658
  H 6.951800 -1.626092 -1.742475
 29
 54.640993
  H 1.338715 -0.526126 1.121190
  C 2.365575 -0.434510 0.800725
  C 3.238491 0.473338 1.588499
  C 2.487591 1.232152 2.679599
  C 3.422678 2.146084 3.463891
  C 2.776687 -1.146657 -0.278806
  C 4.035938 -1.091647 -0.839543
  C 4.824983 -1.212197 -1.866827
  C 4.662555 -1.270878 -3.341409
  C 3.195281 -1.341388 -3.761226
  C 3.066353 -1.397212 -5.278945
  O 6.216316 -1.102754 -1.374220
  H 3.713568 1.189077 0.909629
  H 4.045938 -0.102300 2.051425
  H 2.020778 0.522153 3.365967
  H 1.691922 1.830814 2.230663
  H 4.205094 1.569924 3.952679
  H 2.872825 2.686120 4.231059
  H 3.890011 2.875900 2.806472
  H 2.088862 -1.878382 -0.698110
  H 5.878449 -0.991087 -0.421649
  H 5.178663 -2.162280 -3.708838
  H 5.134146 -0.399311 -3.804041
  H 2.663658 -0.466866 -3.383394
  H 2.734331 -2.230406 -3.329149
  H 3.515842 -0.519788 -5.738503
  H 2.019698 -1.430897 -5.570490
  H 3.556206 -2.282550 -5.678248
  H 6.934216 -1.660173 -1.751965
 29
 46.555750
  H 1.346337 -0.650977 1.191796
  C 2.360600 -0.540005 0.839731
  C 3.215764 0.451779 1.542742
  C 2.460274 1.242118 2.608387
  C 3.372095 2.241137 3.311994
  C 2.777449 -1.302975 -0.209808
  C 4.018163 -1.247930 -0.791298
  C 4.836920 -1.316072 -1.794147
  C 4.660907 -1.263882 -3.275238
  C 3.189257 -1.267605 -3.684969
  C 3.046979 -1.207996 -5.201550
  O 6.257227 -1.278428 -1.391010
  H 3.639376 1.145400 0.809134
  H 4.058249 -0.061454 2.015959
  H 2.042592 0.554334 3.347193
  H 1.627521 1.777512 2.146767
  H 4.192770 1.729688 3.810049
  H 2.818032 2.800540 4.062065
  H 3.787845 2.950820 2.600174
  H 2.103426 -2.071411 -0.580790
  H 6.202946 -1.188853 -0.416937
  H 5.149265 -2.138769 -3.711996
  H 5.145676 -0.369123 -3.674606
  H 2.681972 -0.411194 -3.238315
  H 2.708844 -2.173828 -3.313809
  H 3.512599 -0.309145 -5.599471
  H 1.997470 -1.196943 -5.484696
  H 3.512751 -2.072353 -5.669685
  H 6.954960 -1.770304 -1.877615
 29
 42.779273
  H 1.449260 -0.962274 1.371837
  C 2.420095 -0.801131 0.931182
  C 3.204079 0.360998 1.413960
  C 2.436769 1.224120 2.412824
  C 3.277572 2.400996 2.896591
  C 2.852109 -1.666088 -0.038359
  C 4.030371 -1.584791 -0.700774
  C 4.869209 -1.551706 -1.682084
  C 4.672244 -1.248811 -3.134405
  C 3.194604 -1.101428 -3.498671
  C 3.028177 -0.785141 -4.981221
  O 6.292824 -1.681306 -1.354967
  H 3.507626 0.974882 0.559759
  H 4.126570 0.008283 1.887976
  H 2.141069 0.615162 3.271769
  H 1.524259 1.601212 1.945175
  H 4.179031 2.051327 3.396595
  H 2.714060 3.007929 3.601319
  H 3.568846 3.034673 2.062323
  H 2.236252 -2.531806 -0.257626
  H 6.459418 -1.686957 -0.394328
  H 5.097170 -2.066583 -3.723751
  H 5.195914 -0.324544 -3.391160
  H 2.747339 -0.303344 -2.903584
  H 2.664557 -2.027448 -3.263600
  H 3.535270 0.141058 -5.239361
  H 1.975406 -0.672917 -5.230228
  H 3.436454 -1.583905 -5.597285
  H 6.968973 -1.915215 -2.027096
 29
 42.314866
  H 1.381747 -0.885310 1.147829
  C 2.392300 -0.777850 0.793024
  C 3.197038 0.336065 1.352493
  C 2.414313 1.246794 2.296338
  C 3.323597 2.336422 2.863060
  C 2.880776 -1.677583 -0.118210
  C 4.116784 -1.613424 -0.671779
  C 4.933925 -1.564123 -1.670083
  C 4.714791 -1.228549 -3.105525
  C 3.214089 -1.092217 -3.393855
  C 2.958694 -0.773192 -4.864159
  O 6.347320 -1.820256 -1.352577
  H 3.622900 0.931271 0.542688
  H 4.042721 -0.095404 1.911167
  H 1.991833 0.654485 3.120746
  H 1.580162 1.705617 1.764954
  H 4.147849 1.896929 3.424383
  H 2.773776 2.993855 3.532756
  H 3.735523 2.941791 2.060210
  H 2.280258 -2.551905 -0.348315
  H 6.493634 -1.763357 -0.389917
  H 5.125575 -2.048448 -3.718388
  H 5.230227 -0.308430 -3.381890
  H 2.796620 -0.302393 -2.768162
  H 2.704930 -2.030410 -3.132313
  H 3.438713 0.160634 -5.142735
  H 1.891803 -0.673304 -5.057256
  H 3.341585 -1.564306 -5.506198
  H 7.065138 -1.633187 -1.992005
 29
 43.052104
  H 1.323484 -0.693623 1.207503
  C 2.332251 -0.604475 0.835549
  C 3.205205 0.409928 1.478741
  C 2.483403 1.227603 2.547396
  C 3.410629 2.259390 3.180340
  C 2.732418 -1.424347 -0.181255
  C 3.967485 -1.426765 -0.758793
  C 4.834593 -1.493467 -1.714890
  C 4.678102 -1.359045 -3.199970
  C 3.219212 -1.191871 -3.620841
  C 3.101398 -1.072316 -5.136135
  O 6.262861 -1.679876 -1.360070
  H 3.599041 1.086034 0.712764
  H 4.066328 -0.089342 1.936832
  H 2.103424 0.560553 3.324433
  H 1.626778 1.738044 2.101758
  H 4.262011 1.773951 3.652183
  H 2.883295 2.830318 3.941018
  H 3.780586 2.955893 2.431197
  H 2.037148 -2.183468 -0.528330
  H 6.402382 -1.362410 -0.439429
  H 5.077651 -2.265916 -3.661143
  H 5.245939 -0.500317 -3.567340
  H 2.801995 -0.299366 -3.152117
  H 2.638067 -2.049467 -3.280180
  H 3.654821 -0.210471 -5.502526
  H 2.061218 -0.952199 -5.427807
  H 3.487615 -1.963009 -5.626603
  H 6.859285 -1.219748 -1.996004
