26

C 0.971295 0.13867 0.397107
C 2.449192 0.137931 0.39459
C 3.235531 0.607709 1.563175
H 2.6911086797204566 0.9511112278903333 2.417914286017318
C 3.064128 -0.325974 -0.760267
C 4.443809 -0.411383 -0.973421
C 5.121105 -0.862388 -2.097901
C 4.624049 -1.38548 -3.402263
C 3.132878 -1.50314 -3.69654
C 2.906825 -2.064904 -5.097384
O 6.446987 -0.858854 -2.089278
H 0.535803 0.508833 1.318339
H 0.600068 -0.873827 0.231408
H 0.599672 0.754766 -0.423105
H 3.891403 1.41989 1.229297
H 3.891713 -0.209425 1.884089
H 2.406174 -0.643694 -1.551139
H 5.05813 -0.077641 -0.141777
H 5.079219 -2.374632 -3.528483
H 5.07963 -0.757954 -4.176997
H 2.657804 -0.522545 -3.642832
H 2.657374 -2.174659 -2.980221
H 3.344702 -1.417655 -5.854232
H 1.841151 -2.145462 -5.298957
H 3.344286 -3.055949 -5.197183
H 6.807211 -0.521489 -1.247443
