 26
 0.000000
  C 0.980165 0.152243 0.431210
  C 2.454134 0.136292 0.390780
  C 3.234750 0.603257 1.551431
  H 2.631425 0.938565 2.385787
  C 3.056644 -0.330915 -0.771662
  C 4.433475 -0.414136 -0.979631
  C 5.116786 -0.865324 -2.104931
  C 4.620146 -1.387481 -3.407283
  C 3.130794 -1.506804 -3.705822
  C 2.922866 -2.069627 -5.109625
  O 6.437688 -0.860010 -2.092111
  H 0.587336 0.529845 1.370236
  H 0.590317 -0.854026 0.271698
  H 0.589879 0.767704 -0.380529
  H 3.887555 1.423138 1.244992
  H 3.888068 -0.200128 1.897798
  H 2.393360 -0.647012 -1.557917
  H 5.050896 -0.081699 -0.151465
  H 5.080752 -2.374288 -3.532460
  H 5.081286 -0.760880 -4.179546
  H 2.653816 -0.527446 -3.656154
  H 2.653411 -2.180351 -2.993426
  H 3.367465 -1.420704 -5.860511
  H 1.861012 -2.155951 -5.325585
  H 3.367120 -3.057723 -5.204125
  H 6.810101 -0.524684 -1.254652
 26
 1.832808
  C 0.988670 -0.049451 0.511913
  C 2.449928 0.073202 0.366064
  C 3.196134 0.975031 1.264267
  H 2.547565 1.424421 2.007550
  C 3.066655 -0.648214 -0.648406
  C 4.439363 -0.632832 -0.894290
  C 5.135534 -1.068184 -2.014869
  C 4.634610 -1.433008 -3.366621
  C 3.141169 -1.460341 -3.662315
  C 2.907789 -1.750778 -5.142834
  O 6.459167 -1.047238 -1.990136
  H 0.596799 0.572870 1.314444
  H 0.715759 -1.089597 0.698653
  H 0.491479 0.218969 -0.421499
  H 3.673140 1.771707 0.694630
  H 3.995339 0.438017 1.774287
  H 2.431866 -1.262897 -1.259944
  H 5.073434 -0.209142 -0.124093
  H 5.067441 -2.410708 -3.604448
  H 5.123399 -0.736807 -4.063303
  H 2.690075 -0.495589 -3.417449
  H 2.653904 -2.241256 -3.080872
  H 3.360157 -0.984648 -5.765746
  H 1.842716 -1.778138 -5.360571
  H 3.333810 -2.712682 -5.422345
  H 6.867054 -1.128651 -1.110254
 26
 6.152506
  C 0.985229 -0.097698 0.565391
  C 2.437654 0.084670 0.376197
  C 3.170507 1.022612 1.242524
  H 2.516064 1.497099 1.966175
  C 3.056901 -0.633859 -0.638465
  C 4.429749 -0.602476 -0.889871
  C 5.136916 -1.065274 -1.985626
  C 4.645899 -1.434847 -3.337108
  C 3.154425 -1.430541 -3.646389
  C 2.925834 -1.728757 -5.126553
  O 6.471860 -0.999912 -1.943835
  H 0.601004 0.483785 1.394788
  H 0.759080 -1.153083 0.726987
  H 0.450588 0.181040 -0.344919
  H 3.653500 1.799120 0.649946
  H 3.968174 0.507263 1.779702
  H 2.434451 -1.284482 -1.230992
  H 5.061625 -0.097701 -0.168040
  H 5.060659 -2.424948 -3.563140
  H 5.155282 -0.760672 -4.036221
  H 2.721845 -0.457489 -3.413300
  H 2.646846 -2.197460 -3.061269
  H 3.408167 -0.979911 -5.751748
  H 1.862072 -1.724988 -5.352036
  H 3.322899 -2.704651 -5.394679
  H 6.895706 -1.441748 -1.192550
 26
 11.958763
  C 0.963371 -0.108122 0.552740
  C 2.413498 0.062626 0.359889
  C 3.134535 1.105318 1.108506
  H 2.480315 1.639458 1.789512
  C 3.055667 -0.750352 -0.567169
  C 4.432048 -0.705847 -0.825993
  C 5.149060 -1.084614 -1.944536
  C 4.676057 -1.370911 -3.317287
  C 3.179138 -1.429502 -3.590051
  C 2.917172 -1.651402 -5.077038
  O 6.493041 -0.974240 -1.828830
  H 0.561394 0.572438 1.296023
  H 0.741799 -1.136029 0.844674
  H 0.435482 0.046027 -0.389765
  H 3.590963 1.822579 0.425485
  H 3.957187 0.666386 1.673998
  H 2.452970 -1.473206 -1.094351
  H 5.105897 -0.345989 -0.055556
  H 5.138537 -2.311553 -3.638565
  H 5.135835 -0.607188 -3.958643
  H 2.707177 -0.495710 -3.281249
  H 2.729390 -2.251484 -3.034281
  H 3.339141 -0.844488 -5.671706
  H 1.848724 -1.690386 -5.272269
  H 3.355569 -2.587836 -5.413716
  H 6.951214 -1.766690 -1.515550
 26
 12.976179
  C 0.945589 -0.114335 0.508868
  C 2.399857 0.036741 0.324343
  C 3.107758 1.168742 0.948516
  H 2.443017 1.781119 1.550337
  C 3.061500 -0.852702 -0.508767
  C 4.437068 -0.794549 -0.766452
  C 5.160306 -1.131861 -1.894576
  C 4.702236 -1.336261 -3.287988
  C 3.200448 -1.430874 -3.529248
  C 2.902748 -1.560085 -5.019607
  O 6.486885 -1.046111 -1.696241
  H 0.540180 0.617333 1.200222
  H 0.711177 -1.119547 0.862009
  H 0.430334 -0.013039 -0.447857
  H 3.576304 1.798570 0.192648
  H 3.922826 0.798910 1.572883
  H 2.487293 -1.651770 -0.951818
  H 5.140912 -0.597116 0.036640
  H 5.172262 -2.247442 -3.677460
  H 5.124422 -0.515914 -3.877803
  H 2.705097 -0.538781 -3.141079
  H 2.796562 -2.303364 -3.015726
  H 3.254410 -0.686691 -5.564149
  H 1.833216 -1.652506 -5.186556
  H 3.385567 -2.440050 -5.438453
  H 7.002287 -1.837017 -1.917989
 26
 27.101355
  C 0.945903 -0.183765 0.643819
  C 2.373095 -0.020470 0.317457
  C 3.060991 1.246865 0.614750
  H 2.405602 1.955795 1.107140
  C 3.027630 -1.037515 -0.339899
  C 4.364579 -0.960239 -0.753686
  C 5.112823 -1.237945 -1.864849
  C 4.751611 -1.323682 -3.294213
  C 3.245334 -1.313986 -3.540454
  C 2.931400 -1.376509 -5.030499
  O 6.429311 -1.180821 -1.516219
  H 0.548065 0.673886 1.175390
  H 0.793811 -1.082389 1.243048
  H 0.361380 -0.328655 -0.265973
  H 3.442579 1.702356 -0.298901
  H 3.928313 1.061514 1.246891
  H 2.498810 -1.964815 -0.513473
  H 5.265786 -0.851617 -0.080052
  H 5.177704 -2.240885 -3.714708
  H 5.222762 -0.484377 -3.815337
  H 2.810963 -0.408220 -3.117478
  H 2.789993 -2.169122 -3.042528
  H 3.339281 -0.511990 -5.549368
  H 1.856650 -1.392187 -5.193680
  H 3.353271 -2.272947 -5.479169
  H 6.963117 -1.972782 -1.678251
 26
 42.206083
  C 0.964851 -0.165942 0.869800
  C 2.335903 0.001763 0.356767
  C 3.032670 1.292796 0.497091
  H 2.411151 2.039113 0.983199
  C 2.937186 -1.046439 -0.298739
  C 4.246858 -1.022888 -0.775785
  C 5.028219 -1.278634 -1.853812
  C 4.772993 -1.373232 -3.306756
  C 3.282434 -1.303872 -3.643265
  C 3.054664 -1.347479 -5.150011
  O 6.319633 -1.258187 -1.398984
  H 0.611305 0.718692 1.389207
  H 0.920314 -1.023493 1.542049
  H 0.278939 -0.386363 0.050661
  H 3.337447 1.670280 -0.479031
  H 3.950992 1.166044 1.071625
  H 2.399300 -1.984326 -0.376730
  H 5.276623 -0.943143 -0.137924
  H 5.199809 -2.304049 -3.689395
  H 5.292599 -0.542189 -3.794545
  H 2.882770 -0.360387 -3.262115
  H 2.740757 -2.114584 -3.157316
  H 3.552348 -0.514826 -5.641639
  H 1.992786 -1.285245 -5.372712
  H 3.434014 -2.275234 -5.573101
  H 6.849912 -2.044210 -1.615871
 26
 61.355494
  C 0.975705 -0.122386 1.019699
  C 2.314586 0.011121 0.401107
  C 3.011670 1.318271 0.411106
  H 2.422772 2.083523 0.906766
  C 2.881911 -1.086646 -0.216586
  C 4.109307 -1.093765 -0.827990
  C 4.908306 -1.315239 -1.845003
  C 4.754940 -1.364221 -3.319253
  C 3.289010 -1.278263 -3.743501
  C 3.152143 -1.347558 -5.259366
  O 6.247819 -1.288668 -1.294202
  H 0.648591 0.803434 1.482435
  H 0.980558 -0.912176 1.771688
  H 0.237860 -0.416824 0.271953
  H 3.222887 1.641932 -0.608200
  H 3.972839 1.236858 0.917227
  H 2.361441 -2.035895 -0.150910
  H 5.532662 -1.051932 -0.268153
  H 5.184511 -2.296672 -3.695984
  H 5.320079 -0.540776 -3.764487
  H 2.859156 -0.342777 -3.383270
  H 2.730995 -2.099200 -3.291642
  H 3.682879 -0.525058 -5.733861
  H 2.106659 -1.287824 -5.550628
  H 3.556733 -2.281518 -5.642999
  H 6.770182 -2.112217 -1.399411
 26
 50.475548
  C 0.934895 -0.056994 1.079341
  C 2.276571 0.024649 0.446304
  C 3.017819 1.311398 0.429620
  H 2.464462 2.097716 0.934872
  C 2.796336 -1.094970 -0.173391
  C 3.964496 -1.138508 -0.854763
  C 4.796852 -1.348233 -1.826457
  C 4.714675 -1.388867 -3.312245
  C 3.265544 -1.321582 -3.797457
  C 3.196285 -1.371586 -5.319517
  O 6.199097 -1.276084 -1.269636
  H 0.646369 0.884602 1.534834
  H 0.917168 -0.836647 1.841847
  H 0.179044 -0.331053 0.341131
  H 3.212395 1.623739 -0.597188
  H 3.987336 1.204944 0.914306
  H 2.250901 -2.027525 -0.082907
  H 5.777239 -1.097656 -0.360455
  H 5.173480 -2.312329 -3.678981
  H 5.282576 -0.551422 -3.725464
  H 2.803072 -0.398640 -3.442048
  H 2.702062 -2.159186 -3.380109
  H 3.734854 -0.534913 -5.758934
  H 2.163202 -1.321915 -5.655185
  H 3.630271 -2.294281 -5.697587
  H 6.734586 -2.096787 -1.388169
 26
 42.053808
  C 1.023101 -0.043567 1.256201
  C 2.247453 0.031823 0.417503
  C 2.867252 1.347213 0.108192
  H 2.300862 2.163956 0.545744
  C 2.785401 -1.138263 -0.099975
  C 3.882778 -1.222786 -0.873065
  C 4.775538 -1.417790 -1.776892
  C 4.745954 -1.409821 -3.263606
  C 3.326087 -1.219847 -3.797194
  C 3.310556 -1.224592 -5.321070
  O 6.206570 -1.534906 -1.248349
  H 0.718061 0.938138 1.606690
  H 1.184937 -0.687745 2.121710
  H 0.196902 -0.480940 0.692731
  H 2.923470 1.499106 -0.970219
  H 3.888317 1.395606 0.486655
  H 2.303873 -2.075041 0.154558
  H 6.043780 -1.295153 -0.308556
  H 5.146377 -2.351429 -3.646745
  H 5.386052 -0.600975 -3.625243
  H 2.920874 -0.274604 -3.432176
  H 2.685311 -2.020155 -3.423622
  H 3.925113 -0.419123 -5.716878
  H 2.297646 -1.089807 -5.692135
  H 3.689442 -2.167286 -5.709273
  H 6.606710 -2.427971 -1.356617
 26
 40.147914
  C 1.058216 -0.027670 1.360563
  C 2.227314 0.032357 0.446433
  C 2.818025 1.342671 0.069596
  H 2.259896 2.170314 0.496844
  C 2.742812 -1.148978 -0.062450
  C 3.777440 -1.253122 -0.915712
  C 4.707728 -1.421921 -1.777887
  C 4.734768 -1.400751 -3.266195
  C 3.335329 -1.226069 -3.854570
  C 3.381208 -1.211687 -5.377857
  O 6.148747 -1.588150 -1.273999
  H 0.750995 0.963318 1.682204
  H 1.288000 -0.624379 2.244968
  H 0.212408 -0.511585 0.869383
  H 2.835399 1.454940 -1.014892
  H 3.849179 1.415277 0.415090
  H 2.280192 -2.079561 0.245171
  H 6.266310 -1.201879 -0.376460
  H 5.165720 -2.333141 -3.638080
  H 5.377195 -0.581674 -3.597244
  H 2.899808 -0.292430 -3.494450
  H 2.692606 -2.041062 -3.517218
  H 4.002016 -0.395325 -5.739320
  H 2.382328 -1.082560 -5.787510
  H 3.785966 -2.145400 -5.762126
  H 6.408810 -2.537492 -1.245916
