25

C 0.968341 0.139884 0.399936
C 2.446202 0.13845 0.395686
C 3.234342 0.607737 1.563173
H 2.69133570938644 0.9514138903463549 2.418702288450116
C 3.059757 -0.325663 -0.759787
C 4.43888 -0.411649 -0.974373
C 5.11699 -0.862273 -2.097854
C 4.625438 -1.38582 -3.403169
C 3.13451 -1.504059 -3.698766
C 2.909753 -2.065938 -5.099715
H 6.186924808636789 -0.8578744531913977 -2.0868923371092776
H 0.534143 0.510229 1.321702
H 0.596455 -0.872435 0.234594
H 0.596055 0.756139 -0.419863
H 3.890239 1.419519 1.228374
H 3.89055 -0.209765 1.883078
H 2.401023 -0.643254 -1.550384
H 5.05689 -0.079321 -0.146191
H 5.081006 -2.37488 -3.52806
H 5.081381 -0.757493 -4.176933
H 2.659057 -0.523631 -3.645249
H 2.658679 -2.175542 -2.982643
H 3.348003 -1.418577 -5.856234
H 1.844282 -2.146874 -5.30213
H 3.347644 -3.056831 -5.199123
