 25
 0.000000
  C 0.979386 0.157058 0.443130
  C 2.450733 0.138368 0.395643
  C 3.237181 0.602747 1.550120
  H 2.638099 0.938720 2.386515
  C 3.047035 -0.330477 -0.771213
  C 4.429126 -0.416783 -0.986809
  C 5.092495 -0.865371 -2.105217
  C 4.613758 -1.383727 -3.397737
  C 3.129815 -1.510616 -3.715344
  C 2.932600 -2.074248 -5.120917
  H 6.173410 -0.854285 -2.077460
  H 0.591278 0.535179 1.383741
  H 0.587045 -0.848509 0.283146
  H 0.586474 0.771756 -0.368339
  H 3.892562 1.419799 1.240413
  H 3.893166 -0.200871 1.891960
  H 2.378954 -0.645621 -1.555153
  H 5.050755 -0.086935 -0.164860
  H 5.082079 -2.369509 -3.522703
  H 5.082711 -0.757933 -4.169215
  H 2.648667 -0.532516 -3.668742
  H 2.648119 -2.185213 -3.005935
  H 3.380189 -1.424303 -5.869401
  H 1.872523 -2.163725 -5.344915
  H 3.379721 -3.061493 -5.212829
 25
 -0.317320
  C 0.982353 0.200651 0.458692
  C 2.451284 0.145046 0.395747
  C 3.245205 0.535766 1.573740
  H 2.614579 0.834002 2.404260
  C 3.034434 -0.285217 -0.792986
  C 4.415742 -0.381543 -1.004856
  C 5.073788 -0.814872 -2.132127
  C 4.610550 -1.357112 -3.411226
  C 3.130610 -1.516272 -3.727940
  C 2.943924 -2.133476 -5.116690
  H 6.153675 -0.772626 -2.078322
  H 0.618204 0.547760 1.420208
  H 0.558572 -0.784368 0.248604
  H 0.596955 0.851690 -0.327881
  H 3.914890 1.359783 1.327693
  H 3.884451 -0.286669 1.894840
  H 2.363362 -0.548878 -1.592106
  H 5.051992 -0.076082 -0.185377
  H 5.105175 -2.334051 -3.525649
  H 5.082402 -0.750247 -4.197126
  H 2.636898 -0.541186 -3.714489
  H 2.657692 -2.171032 -2.991722
  H 3.386766 -1.505940 -5.886066
  H 1.884265 -2.245465 -5.343762
  H 3.403604 -3.115999 -5.172287
 25
 -0.287991
  C 0.984159 0.220733 0.451594
  C 2.452273 0.147878 0.392408
  C 3.244709 0.478696 1.587507
  H 2.612216 0.752787 2.426796
  C 3.035759 -0.243417 -0.809074
  C 4.417255 -0.348413 -1.018203
  C 5.074548 -0.764445 -2.152092
  C 4.611841 -1.333809 -3.421083
  C 3.132510 -1.512271 -3.726248
  C 2.944259 -2.174669 -5.092848
  H 6.155589 -0.703229 -2.103403
  H 0.620529 0.535832 1.423799
  H 0.547839 -0.749452 0.202083
  H 0.611459 0.905379 -0.311310
  H 3.927996 1.302329 1.378318
  H 3.869952 -0.365764 1.878846
  H 2.364824 -0.461439 -1.625459
  H 5.055440 -0.066200 -0.191345
  H 5.113279 -2.309859 -3.515490
  H 5.077013 -0.743363 -4.221979
  H 2.633707 -0.540849 -3.742282
  H 2.665967 -2.145170 -2.965997
  H 3.382815 -1.569146 -5.885067
  H 1.884463 -2.298553 -5.312577
  H 3.408636 -3.157490 -5.118029
 25
 -0.215038
  C 0.986114 0.233756 0.445215
  C 2.454306 0.148193 0.388153
  C 3.246000 0.424882 1.598006
  H 2.613445 0.677740 2.443888
  C 3.038409 -0.205722 -0.824296
  C 4.419359 -0.316434 -1.033236
  C 5.075362 -0.713823 -2.174460
  C 4.614098 -1.311138 -3.430735
  C 3.134711 -1.504049 -3.725786
  C 2.945336 -2.212810 -5.065474
  H 6.155695 -0.631871 -2.134144
  H 0.622363 0.514582 1.426719
  H 0.541010 -0.720099 0.157555
  H 0.623207 0.951683 -0.292476
  H 3.942688 1.245931 1.421481
  H 3.857479 -0.439117 1.861789
  H 2.370052 -0.381098 -1.651397
  H 5.059100 -0.053882 -0.200919
  H 5.117610 -2.287930 -3.499817
  H 5.076577 -0.740369 -4.247670
  H 2.634354 -0.535675 -3.774483
  H 2.671489 -2.109590 -2.943499
  H 3.381650 -1.635622 -5.877824
  H 1.888023 -2.344664 -5.278536
  H 3.410538 -3.195547 -5.056861
 25
 -0.093742
  C 0.988542 0.244246 0.438918
  C 2.456336 0.147799 0.382853
  C 3.246334 0.372784 1.603794
  H 2.613993 0.600049 2.455709
  C 3.041843 -0.167798 -0.839302
  C 4.421981 -0.285158 -1.047329
  C 5.077164 -0.663585 -2.195033
  C 4.618848 -1.287017 -3.440153
  C 3.137160 -1.496635 -3.726111
  C 2.947948 -2.251265 -5.036951
  H 6.156164 -0.561153 -2.163007
  H 0.622016 0.485849 1.434995
  H 0.534885 -0.691416 0.106949
  H 0.637019 0.995929 -0.265129
  H 3.952198 1.194715 1.459095
  H 3.849272 -0.507857 1.838242
  H 2.376588 -0.299755 -1.676428
  H 5.064373 -0.046272 -0.208428
  H 5.126733 -2.262114 -3.486503
  H 5.076874 -0.732867 -4.269374
  H 2.632767 -0.531905 -3.807595
  H 2.678067 -2.074060 -2.923936
  H 3.382740 -1.701905 -5.870107
  H 1.891920 -2.391845 -5.243563
  H 3.414894 -3.232630 -4.993811
 25
 0.012004
  C 0.991162 0.262638 0.426512
  C 2.457694 0.143319 0.372171
  C 3.245739 0.302103 1.605740
  H 2.612845 0.499093 2.463663
  C 3.044405 -0.131523 -0.858931
  C 4.424737 -0.237744 -1.070183
  C 5.080681 -0.603268 -2.223159
  C 4.623534 -1.251939 -3.453806
  C 3.144905 -1.495577 -3.711915
  C 2.951021 -2.303796 -4.991491
  H 6.159068 -0.479033 -2.201196
  H 0.620493 0.390940 1.436536
  H 0.518447 -0.609705 -0.024620
  H 0.667546 1.108313 -0.180736
  H 3.962218 1.117823 1.502509
  H 3.834015 -0.595191 1.802058
  H 2.381647 -0.227352 -1.702606
  H 5.067360 -0.003836 -0.230917
  H 5.149338 -2.216950 -3.489778
  H 5.060024 -0.700730 -4.299223
  H 2.625207 -0.543393 -3.822999
  H 2.705565 -2.046702 -2.881598
  H 3.381623 -1.788026 -5.848330
  H 1.892557 -2.454248 -5.188185
  H 3.419637 -3.282366 -4.910675
 25
 0.135923
  C 0.995432 0.252512 0.434872
  C 2.460673 0.134219 0.374881
  C 3.250953 0.280555 1.607988
  H 2.618981 0.470480 2.470762
  C 3.044211 -0.114547 -0.862455
  C 4.423501 -0.232960 -1.076779
  C 5.075296 -0.567772 -2.239849
  C 4.624770 -1.227061 -3.468113
  C 3.147180 -1.491673 -3.720795
  C 2.961952 -2.335163 -4.978904
  H 6.149171 -0.416630 -2.225134
  H 0.621871 0.293303 1.452343
  H 0.514257 -0.565664 -0.101581
  H 0.685139 1.161189 -0.085999
  H 3.967619 1.094937 1.511909
  H 3.837780 -0.620430 1.795317
  H 2.380013 -0.177297 -1.710280
  H 5.070070 -0.032530 -0.230405
  H 5.160712 -2.188832 -3.496471
  H 5.053717 -0.678719 -4.317945
  H 2.618438 -0.546716 -3.856767
  H 2.711624 -2.025817 -2.875237
  H 3.400266 -1.844564 -5.845564
  H 1.904456 -2.489516 -5.180456
  H 3.428246 -3.311926 -4.866761
 25
 0.448073
  C 0.997030 0.248452 0.431723
  C 2.460840 0.122282 0.367074
  C 3.252775 0.217224 1.606931
  H 2.623362 0.392619 2.473135
  C 3.045573 -0.082974 -0.877780
  C 4.423889 -0.195666 -1.096176
  C 5.073174 -0.506669 -2.267642
  C 4.632200 -1.194637 -3.481852
  C 3.155207 -1.483723 -3.713193
  C 2.967775 -2.373972 -4.939940
  H 6.144655 -0.329725 -2.262802
  H 0.624190 0.246825 1.449412
  H 0.508812 -0.539785 -0.140898
  H 0.695684 1.184125 -0.046803
  H 3.986467 1.018556 1.536096
  H 3.818517 -0.699139 1.767646
  H 2.386770 -0.103985 -1.729172
  H 5.074608 -0.038300 -0.243864
  H 5.180105 -2.148625 -3.488227
  H 5.048558 -0.659226 -4.345746
  H 2.615814 -0.550422 -3.876500
  H 2.732537 -1.990168 -2.845381
  H 3.408149 -1.917483 -5.824145
  H 1.909290 -2.532639 -5.136296
  H 3.431088 -3.347101 -4.791071
 25
 0.819308
  C 1.000593 0.244701 0.433073
  C 2.464542 0.113105 0.363265
  C 3.255434 0.153733 1.604543
  H 2.626905 0.302941 2.476175
  C 3.048367 -0.047797 -0.888014
  C 4.424987 -0.159297 -1.112427
  C 5.070626 -0.452544 -2.289875
  C 4.634840 -1.166442 -3.493301
  C 3.161443 -1.488542 -3.702474
  C 2.978493 -2.410788 -4.905244
  H 6.136195 -0.247070 -2.298615
  H 0.628268 0.213085 1.451478
  H 0.508384 -0.524507 -0.162044
  H 0.703162 1.195094 -0.016308
  H 3.999403 0.949077 1.564733
  H 3.809529 -0.777691 1.731737
  H 2.390396 -0.024405 -1.742548
  H 5.079649 -0.043254 -0.254288
  H 5.201390 -2.109975 -3.487993
  H 5.029368 -0.634759 -4.368401
  H 2.601986 -0.569020 -3.880724
  H 2.757118 -1.982315 -2.817587
  H 3.408799 -1.971506 -5.802074
  H 1.921247 -2.586144 -5.092252
  H 3.453593 -3.373803 -4.734860
 25
 0.192762
  C 1.005275 0.175162 0.460756
  C 2.472167 0.097414 0.379484
  C 3.268750 0.240394 1.608008
  H 2.642571 0.433906 2.470640
  C 3.051211 -0.113619 -0.866075
  C 4.430877 -0.198872 -1.093566
  C 5.080135 -0.511546 -2.264420
  C 4.635421 -1.196651 -3.481662
  C 3.159552 -1.501397 -3.710882
  C 2.978267 -2.368423 -4.951796
  H 6.149666 -0.331610 -2.261152
  H 0.641778 0.097725 1.480569
  H 0.527716 -0.578993 -0.165543
  H 0.681432 1.141215 0.059704
  H 3.995521 1.046143 1.509250
  H 3.845308 -0.670182 1.793985
  H 2.384621 -0.176485 -1.710943
  H 5.081024 -0.008623 -0.247652
  H 5.194985 -2.143259 -3.502273
  H 5.039706 -0.649654 -4.341939
  H 2.604909 -0.571495 -3.853922
  H 2.748825 -2.030761 -2.852352
  H 3.398064 -1.884534 -5.830028
  H 1.922618 -2.546353 -5.139463
  H 3.463988 -3.332918 -4.828509
 25
 -0.200091
  C 1.008712 0.147351 0.474847
  C 2.475690 0.081301 0.383484
  C 3.270125 0.260275 1.608468
  H 2.638712 0.471613 2.467085
  C 3.055522 -0.148859 -0.859014
  C 4.436982 -0.218863 -1.085593
  C 5.087456 -0.543042 -2.253723
  C 4.636972 -1.205548 -3.478885
  C 3.168576 -1.531519 -3.699837
  C 2.989061 -2.363560 -4.968006
  H 6.157597 -0.371058 -2.248400
  H 0.649553 -0.065408 1.479154
  H 0.522573 -0.500240 -0.246311
  H 0.696760 1.164365 0.232225
  H 3.991336 1.067247 1.491174
  H 3.851604 -0.642344 1.817046
  H 2.387013 -0.243049 -1.700805
  H 5.082564 0.005496 -0.246289
  H 5.216131 -2.141140 -3.537249
  H 5.019170 -0.625882 -4.329382
  H 2.593228 -0.609095 -3.808000
  H 2.779422 -2.096359 -2.853202
  H 3.372094 -1.836762 -5.836970
  H 1.934020 -2.572136 -5.139878
  H 3.511068 -3.315982 -4.887861
 25
 0.181843
  C 1.021521 0.146885 0.472055
  C 2.488160 0.055790 0.393990
  C 3.284157 0.184953 1.625582
  H 2.654835 0.350232 2.494157
  C 3.068814 -0.146222 -0.853102
  C 4.449050 -0.233452 -1.078845
  C 5.095768 -0.535824 -2.252889
  C 4.648169 -1.211266 -3.475017
  C 3.175277 -1.524872 -3.700462
  C 2.994590 -2.381499 -4.949999
  H 6.164438 -0.351654 -2.251777
  H 0.654348 0.066815 1.490456
  H 0.538574 -0.597220 -0.159719
  H 0.709437 1.118213 0.076166
  H 3.995880 1.006817 1.542847
  H 3.877249 -0.715715 1.790593
  H 2.403386 -0.196504 -1.699016
  H 5.096964 -0.036866 -0.231519
  H 5.214901 -2.155015 -3.507789
  H 5.044980 -0.653243 -4.332825
  H 2.614836 -0.598819 -3.833005
  H 2.770348 -2.066124 -2.842962
  H 3.342917 -1.856530 -5.835794
  H 1.944776 -2.624510 -5.095050
  H 3.546679 -3.315091 -4.867238
 25
 0.538715
  C 1.016785 0.162588 0.460276
  C 2.483069 0.064506 0.387257
  C 3.276108 0.118086 1.625665
  H 2.649192 0.278991 2.497999
  C 3.064861 -0.100067 -0.865280
  C 4.443165 -0.184751 -1.093573
  C 5.091817 -0.487646 -2.266642
  C 4.649013 -1.190394 -3.474247
  C 3.173079 -1.498704 -3.696301
  C 2.989146 -2.388789 -4.920635
  H 6.158345 -0.289047 -2.272411
  H 0.651920 0.202887 1.481303
  H 0.545255 -0.669837 -0.063469
  H 0.685890 1.058543 -0.067120
  H 4.023544 0.910848 1.575117
  H 3.828405 -0.813269 1.761464
  H 2.401611 -0.110822 -1.714024
  H 5.095349 -0.011578 -0.245266
  H 5.208219 -2.139688 -3.475209
  H 5.054980 -0.659631 -4.345159
  H 2.619709 -0.570313 -3.856543
  H 2.761004 -2.011350 -2.824872
  H 3.378424 -1.907703 -5.813108
  H 1.932245 -2.596411 -5.084511
  H 3.503417 -3.340881 -4.793281
 25
 0.444333
  C 1.012430 0.182469 0.440935
  C 2.478782 0.071276 0.379709
  C 3.261872 0.105674 1.625637
  H 2.637145 0.318974 2.487036
  C 3.068036 -0.100142 -0.868503
  C 4.447349 -0.194842 -1.087847
  C 5.104174 -0.491610 -2.258865
  C 4.651846 -1.171225 -3.476711
  C 3.182350 -1.515634 -3.673489
  C 2.996050 -2.382744 -4.915620
  H 6.170009 -0.294597 -2.262666
  H 0.647557 0.328499 1.452170
  H 0.548085 -0.712128 0.021376
  H 0.671999 1.005780 -0.189295
  H 4.057287 0.848389 1.569696
  H 3.752282 -0.856215 1.785854
  H 2.409553 -0.109674 -1.722043
  H 5.090486 -0.038054 -0.231413
  H 5.240099 -2.099913 -3.524919
  H 5.017505 -0.599844 -4.339580
  H 2.598520 -0.602925 -3.799457
  H 2.805927 -2.058882 -2.805120
  H 3.347232 -1.867481 -5.806766
  H 1.945173 -2.620954 -5.058073
  H 3.542806 -3.318631 -4.824615
 25
 -0.013058
  C 1.010868 0.112940 0.480102
  C 2.481277 0.063863 0.408519
  C 3.273795 0.250219 1.633663
  H 2.647979 0.501844 2.482221
  C 3.064600 -0.187436 -0.829727
  C 4.444271 -0.261463 -1.053728
  C 5.099430 -0.593832 -2.217534
  C 4.645985 -1.225479 -3.460260
  C 3.175471 -1.508070 -3.712162
  C 2.996976 -2.300591 -5.003257
  H 6.173119 -0.449681 -2.199755
  H 0.649054 0.338490 1.477458
  H 0.585988 -0.840314 0.154347
  H 0.623463 0.853583 -0.222625
  H 4.025301 1.028717 1.501188
  H 3.822083 -0.664491 1.867657
  H 2.395299 -0.301078 -1.668897
  H 5.086904 -0.015576 -0.219480
  H 5.198605 -2.170472 -3.527230
  H 5.055913 -0.643566 -4.292600
  H 2.626032 -0.569600 -3.804857
  H 2.757938 -2.087394 -2.886613
  H 3.394805 -1.754683 -5.853761
  H 1.944428 -2.489041 -5.189344
  H 3.504969 -3.261323 -4.945899
