 20
 0.000000
  H 1.381298 0.169046 0.471651
  C 2.452560 0.135635 0.388387
  H 3.067804 0.464874 1.207710
  C 3.003705 -0.330959 -0.773316
  C 4.388503 -0.409292 -0.969464
  C 5.100761 -0.859510 -2.092014
  C 4.615964 -1.381083 -3.391703
  C 3.131137 -1.506525 -3.704559
  C 2.944591 -2.071038 -5.111119
  O 6.408134 -0.842438 -2.050253
  H 2.332901 -0.645043 -1.554861
  H 5.000570 -0.074969 -0.137545
  H 5.087096 -2.364453 -3.515291
  H 5.087363 -0.756234 -4.160862
  H 2.648718 -0.529629 -3.660631
  H 2.648611 -2.181978 -2.997506
  H 3.395382 -1.420254 -5.856394
  H 1.886860 -2.163863 -5.342583
  H 3.395371 -3.056497 -5.199687
  H 6.786812 -0.507250 -1.213325
 20
 13.358571
  H 1.378977 0.263598 0.368386
  C 2.453056 0.144792 0.310487
  H 2.986178 0.179277 1.250204
  C 3.072337 -0.055528 -0.877738
  C 4.473403 -0.319415 -0.943485
  C 5.099727 -0.781368 -2.101047
  C 4.591054 -1.282538 -3.394638
  C 3.122608 -1.598393 -3.645004
  C 2.947355 -2.147658 -5.056486
  O 6.417100 -0.681607 -2.107079
  H 2.510323 -0.018871 -1.795173
  H 4.781231 -0.417653 0.090629
  H 5.181679 -2.183075 -3.576357
  H 4.933307 -0.584208 -4.165973
  H 2.494563 -0.711918 -3.559924
  H 2.769760 -2.344882 -2.935688
  H 3.262321 -1.418279 -5.800623
  H 1.904639 -2.382969 -5.239292
  H 3.525266 -3.057429 -5.201384
  H 6.865607 -0.932389 -1.280753
 20
 65.034345
  H 1.414884 0.239944 0.306128
  C 2.508015 0.139848 0.304648
  H 2.943911 0.262301 1.282153
  C 3.168136 -0.062650 -0.838126
  C 4.636732 -0.315596 -0.896224
  C 5.022412 -0.814124 -2.089599
  C 4.575701 -1.300998 -3.389930
  C 3.103519 -1.645795 -3.650381
  C 2.928969 -2.135460 -5.089788
  O 6.393470 -0.600699 -2.086890
  H 2.745966 -0.130971 -1.826804
  H 4.475503 -0.224659 0.184978
  H 5.194063 -2.186985 -3.584069
  H 4.878432 -0.534246 -4.101496
  H 2.467559 -0.780139 -3.499648
  H 2.792115 -2.427729 -2.960289
  H 3.212253 -1.360552 -5.805989
  H 1.890028 -2.412083 -5.277222
  H 3.550581 -3.010183 -5.272921
  H 6.894505 -1.031283 -1.372999
 20
 103.382112
  H 1.354950 0.182687 0.702389
  C 2.419202 0.175274 0.473308
  H 2.996067 0.394768 1.329090
  C 2.849735 -0.073209 -0.715575
  C 4.776863 -0.328023 -0.992339
  C 5.025294 -0.914696 -2.124624
  C 4.661112 -1.389868 -3.462020
  C 3.155947 -1.640779 -3.718115
  C 2.943883 -2.126607 -5.138250
  O 6.413095 -0.501448 -1.984953
  H 2.455772 -0.273866 -1.694947
  H 4.506907 0.013443 -0.032539
  H 5.202843 -2.329380 -3.649396
  H 5.034309 -0.648415 -4.165707
  H 2.594472 -0.726053 -3.569905
  H 2.802384 -2.396122 -3.033534
  H 3.325364 -1.387641 -5.854366
  H 1.887557 -2.271652 -5.339113
  H 3.458997 -3.079371 -5.320301
  H 6.963806 -1.014091 -1.379901
 20
 119.679373
  H 1.255932 0.376506 0.981356
  C 2.285118 0.263372 0.645250
  H 2.998884 0.404112 1.446077
  C 2.589386 -0.017248 -0.575931
  C 4.964271 -0.376692 -1.097129
  C 5.026691 -0.951657 -2.245386
  C 4.720970 -1.398415 -3.578462
  C 3.225505 -1.668529 -3.794499
  C 2.982589 -2.174059 -5.212163
  O 6.386976 -0.467359 -1.827970
  H 2.072166 -0.192678 -1.491342
  H 4.739252 -0.051595 -0.115076
  H 5.290651 -2.311118 -3.792217
  H 5.068710 -0.632767 -4.273461
  H 2.664388 -0.747883 -3.642056
  H 2.878724 -2.411889 -3.079969
  H 3.306790 -1.443857 -5.946140
  H 1.925110 -2.359354 -5.368489
  H 3.515936 -3.103068 -5.392451
  H 6.958547 -1.089965 -1.317875
 20
 128.153798
  H 1.173120 0.228904 0.953666
  C 2.174371 0.154720 0.520763
  H 2.952828 0.369182 1.240961
  C 2.384785 -0.149720 -0.710957
  C 5.296934 -0.411475 -1.199285
  C 5.097553 -0.976161 -2.330052
  C 4.735130 -1.460461 -3.607065
  C 3.193473 -1.548163 -3.763473
  C 2.862024 -2.106176 -5.141427
  O 6.694927 -0.472693 -1.678475
  H 1.855656 -0.382059 -1.602700
  H 5.045518 -0.111786 -0.209694
  H 5.164899 -2.457292 -3.758488
  H 5.142293 -0.795689 -4.378198
  H 2.768979 -0.550227 -3.652619
  H 2.785139 -2.198219 -2.988810
  H 3.256689 -1.467314 -5.929060
  H 1.780515 -2.167754 -5.260534
  H 3.271184 -3.105472 -5.273692
  H 7.222604 -0.767446 -0.903660
 20
 115.178529
  H 1.369992 0.107707 0.802424
  C 2.341016 -0.018872 0.315968
  H 3.164318 0.214436 0.997933
  C 2.450517 -0.360593 -0.896303
  C 5.457083 -0.510829 -1.086508
  C 5.041866 -1.033777 -2.207326
  C 4.564625 -1.408861 -3.492055
  C 3.040107 -1.464104 -3.774912
  C 2.803136 -1.948290 -5.204698
  O 6.847980 -0.488074 -1.314771
  H 1.997377 -0.621397 -1.815647
  H 5.084086 -0.259057 -0.113884
  H 4.961419 -2.416370 -3.703109
  H 4.994600 -0.712926 -4.224220
  H 2.625450 -0.454789 -3.666981
  H 2.560923 -2.153857 -3.072141
  H 3.265016 -1.280126 -5.933505
  H 1.730121 -1.980972 -5.404068
  H 3.205693 -2.947367 -5.359002
  H 7.309643 -0.670672 -0.481648
 20
 96.768676
  H 1.732890 0.126785 0.568815
  C 2.720366 0.031428 0.119857
  H 3.468487 0.505342 0.735762
  C 2.854760 -0.566619 -1.002177
  C 5.429614 -0.299531 -1.115557
  C 4.799211 -1.011848 -2.001855
  C 4.264847 -1.445653 -3.274420
  C 2.814045 -1.515167 -3.800926
  C 2.809908 -2.107764 -5.204313
  O 6.795329 -0.258879 -1.162883
  H 2.403909 -1.069340 -1.808911
  H 4.994330 0.175673 -0.258037
  H 4.628943 -2.478477 -3.392831
  H 4.785553 -0.803648 -4.002083
  H 2.388768 -0.511935 -3.851966
  H 2.217815 -2.177057 -3.171205
  H 3.389991 -1.496028 -5.891162
  H 1.790988 -2.158172 -5.577840
  H 3.220761 -3.114498 -5.212150
  H 7.215622 -0.286210 -0.286554
 20
 96.864094
  H 1.761409 0.243828 0.871134
  C 2.604257 0.061948 0.203280
  H 3.525713 0.375840 0.684214
  C 2.466344 -0.433756 -0.950742
  C 5.442777 -0.385914 -1.164083
  C 4.686483 -0.973468 -2.031305
  C 4.371331 -1.446611 -3.345286
  C 2.903121 -1.552342 -3.817966
  C 2.832247 -2.146133 -5.217977
  O 6.793858 -0.246825 -1.216379
  H 2.070196 -0.842318 -1.838399
  H 4.968301 0.008550 -0.273297
  H 4.785457 -2.459140 -3.428004
  H 4.879296 -0.776770 -4.049854
  H 2.464009 -0.553470 -3.842734
  H 2.356261 -2.205001 -3.136400
  H 3.369082 -1.528145 -5.934156
  H 1.795216 -2.210533 -5.538750
  H 3.255891 -3.147447 -5.244155
  H 7.203362 -0.358956 -0.357343
