 29
 0.000000
  C 0.998734 0.113932 0.374152
  C 2.476635 0.126148 0.410403
  C 3.239770 0.610787 1.584064
  C 2.441039 1.107773 2.785572
  C 3.371969 1.568895 3.902646
  C 3.108198 -0.344535 -0.731648
  C 4.479702 -0.435189 -0.971813
  C 5.137180 -0.877355 -2.112559
  C 4.620311 -1.383598 -3.413085
  C 3.126148 -1.492308 -3.684842
  H 2.957775 -1.878892 -4.680019
  O 6.459618 -0.877435 -2.121813
  H 0.540067 0.490932 1.281253
  H 0.640165 -0.902979 0.211164
  H 0.636550 0.716247 -0.463569
  H 3.897675 1.421898 1.251752
  H 3.896907 -0.198870 1.921494
  H 1.801986 0.310803 3.170388
  H 1.802920 1.944535 2.495296
  H 4.007316 0.754064 4.243033
  H 2.792800 1.920586 4.753005
  H 4.008193 2.385726 3.568728
  H 2.445669 -0.665222 -1.518813
  H 5.115825 -0.115206 -0.153392
  H 5.072167 -2.371685 -3.555966
  H 5.068787 -0.749381 -4.186133
  H 2.653510 -0.514361 -3.617781
  H 2.656953 -2.170831 -2.975095
  H 6.850492 -0.553288 -1.288819
 29
 -0.551930
  C 0.962827 0.192631 0.381688
  C 2.434270 0.122913 0.400104
  C 3.220216 0.601681 1.556848
  C 2.444215 1.096847 2.775428
  C 3.404769 1.536952 3.877099
  C 3.048487 -0.359445 -0.748834
  C 4.427015 -0.406809 -0.964149
  C 5.117565 -0.839187 -2.091415
  C 4.626224 -1.377826 -3.388261
  C 3.140224 -1.569416 -3.646465
  H 3.019179 -1.986940 -4.643662
  O 6.436903 -0.788945 -2.088039
  H 0.525733 0.362997 1.357635
  H 0.532153 -0.700724 -0.070032
  H 0.684178 1.025786 -0.270536
  H 3.873266 1.414844 1.216735
  H 3.890666 -0.204202 1.878440
  H 1.806752 0.301594 3.166479
  H 1.811866 1.943176 2.502387
  H 4.036071 0.710888 4.196332
  H 2.851165 1.889723 4.743840
  H 4.044686 2.347564 3.535503
  H 2.391111 -0.706946 -1.528089
  H 5.057108 -0.055126 -0.153559
  H 5.142121 -2.334443 -3.526864
  H 5.044330 -0.723170 -4.160944
  H 2.604769 -0.623858 -3.622195
  H 2.699986 -2.271407 -2.942570
  H 6.833946 -0.442171 -1.262410
 29
 1.507732
  C 0.965199 0.245493 0.388281
  C 2.430417 0.166166 0.375214
  C 3.226175 0.569905 1.559535
  C 2.451942 1.078953 2.772018
  C 3.411416 1.458484 3.896135
  C 3.034622 -0.324803 -0.776996
  C 4.408586 -0.320128 -1.009053
  C 5.109410 -0.781412 -2.121325
  C 4.636242 -1.421862 -3.381216
  C 3.162967 -1.719819 -3.603828
  H 3.054163 -2.185623 -4.580087
  O 6.424064 -0.664396 -2.138395
  H 0.501123 0.276247 1.362394
  H 0.481786 -0.423093 -0.313038
  H 0.877388 1.259429 -0.039622
  H 3.939541 1.345482 1.262947
  H 3.822908 -0.293736 1.870595
  H 1.774874 0.306965 3.140910
  H 1.862399 1.956341 2.502532
  H 4.002470 0.600940 4.209198
  H 2.859216 1.818487 4.760633
  H 4.090659 2.247250 3.580030
  H 2.385274 -0.725457 -1.533323
  H 5.029641 0.092188 -0.223437
  H 5.210400 -2.349606 -3.478002
  H 4.999238 -0.782089 -4.194018
  H 2.568416 -0.811715 -3.608974
  H 2.781431 -2.417933 -2.864893
  H 6.806753 -0.259709 -1.339481
 29
 15.237369
  C 0.963417 0.102417 0.452578
  C 2.411238 0.158443 0.373470
  C 3.226088 0.621856 1.532583
  C 2.451683 1.104311 2.759417
  C 3.414852 1.464642 3.887512
  C 3.022975 -0.382150 -0.756395
  C 4.393592 -0.321166 -1.012563
  C 5.094998 -0.802496 -2.102713
  C 4.628278 -1.439779 -3.368356
  C 3.145486 -1.647733 -3.633202
  H 3.037117 -2.130627 -4.601254
  O 6.421301 -0.704341 -2.108072
  H 0.449546 0.257880 1.383929
  H 0.446835 -0.458819 -0.312523
  H 1.176379 1.133131 -0.014162
  H 3.890482 1.430464 1.211658
  H 3.861867 -0.215054 1.837173
  H 1.780698 0.321368 3.115168
  H 1.858538 1.986631 2.512840
  H 3.990228 0.596444 4.199386
  H 2.867350 1.832307 4.751829
  H 4.109126 2.241877 3.574636
  H 2.381327 -0.865625 -1.473867
  H 5.006139 0.168888 -0.264861
  H 5.141454 -2.406728 -3.424420
  H 5.059180 -0.842338 -4.178591
  H 2.612791 -0.702040 -3.677593
  H 2.696850 -2.301296 -2.891959
  H 6.793671 -0.271637 -1.315496
 29
 33.958894
  C 0.935003 0.099950 0.484307
  C 2.355531 0.212652 0.353182
  C 3.207251 0.634628 1.522919
  C 2.451207 1.090259 2.770925
  C 3.432802 1.452098 3.881693
  C 2.990615 -0.359637 -0.782988
  C 4.362671 -0.330209 -1.009170
  C 5.073846 -0.796706 -2.097220
  C 4.625717 -1.441623 -3.368572
  C 3.150515 -1.706813 -3.623842
  H 3.053494 -2.181591 -4.597480
  O 6.405562 -0.682961 -2.096699
  H 0.409003 0.371098 1.379039
  H 0.373048 -0.378811 -0.301116
  H 1.553220 1.135592 -0.065386
  H 3.873666 1.444821 1.216406
  H 3.831531 -0.217952 1.796485
  H 1.801158 0.291917 3.130533
  H 1.839597 1.966736 2.549702
  H 4.039011 0.592934 4.159111
  H 2.898685 1.785965 4.767638
  H 4.097887 2.253982 3.568423
  H 2.349429 -0.809228 -1.519062
  H 4.974080 0.112378 -0.232972
  H 5.178406 -2.384984 -3.438565
  H 5.023363 -0.818096 -4.177062
  H 2.579863 -0.783040 -3.652298
  H 2.735932 -2.387667 -2.885983
  H 6.762892 -0.265470 -1.293671
 29
 41.121481
  C 0.920798 0.058830 0.505686
  C 2.336643 0.264341 0.346570
  C 3.203461 0.675477 1.528506
  C 2.444631 1.087438 2.789514
  C 3.423134 1.443902 3.904371
  C 2.994284 -0.337321 -0.805416
  C 4.357807 -0.326508 -1.023766
  C 5.068790 -0.814483 -2.109252
  C 4.611635 -1.465864 -3.372612
  C 3.132685 -1.711896 -3.626781
  H 3.029691 -2.194952 -4.595720
  O 6.396814 -0.720315 -2.103618
  H 0.396182 0.343256 1.395804
  H 0.356165 -0.392703 -0.291373
  H 1.876096 1.186966 -0.172076
  H 3.849365 1.505857 1.237330
  H 3.844879 -0.170030 1.782929
  H 1.811873 0.268402 3.133410
  H 1.814137 1.955759 2.590150
  H 4.047593 0.590990 4.159540
  H 2.886151 1.746826 4.799570
  H 4.070312 2.265872 3.606539
  H 2.342238 -0.789658 -1.530917
  H 4.972078 0.117141 -0.250073
  H 5.150285 -2.417966 -3.433023
  H 5.019442 -0.856723 -4.187149
  H 2.575454 -0.780407 -3.665212
  H 2.707132 -2.379542 -2.883107
  H 6.760007 -0.299843 -1.303739
 29
 42.379976
  C 0.920684 0.078662 0.520887
  C 2.321271 0.290528 0.349018
  C 3.197737 0.697105 1.532114
  C 2.443164 1.082620 2.803635
  C 3.424248 1.428856 3.919229
  C 2.981182 -0.325225 -0.818362
  C 4.341981 -0.320702 -1.027864
  C 5.055880 -0.818797 -2.112784
  C 4.595981 -1.487445 -3.364412
  C 3.115862 -1.720282 -3.623251
  H 3.013385 -2.216086 -4.585727
  O 6.377170 -0.731273 -2.104834
  H 0.410571 0.327349 1.429184
  H 0.336928 -0.339821 -0.279313
  H 2.186530 1.166939 -0.367883
  H 3.831622 1.539042 1.250997
  H 3.850514 -0.144501 1.773339
  H 1.816006 0.254367 3.135518
  H 1.804914 1.948105 2.616531
  H 4.060866 0.578381 4.152757
  H 2.888942 1.704913 4.824513
  H 4.058069 2.265969 3.634799
  H 2.326888 -0.803288 -1.525249
  H 4.952521 0.132087 -0.256005
  H 5.123127 -2.446628 -3.404972
  H 5.016219 -0.898212 -4.186816
  H 2.568316 -0.784138 -3.678344
  H 2.678413 -2.374548 -2.874708
  H 6.745202 -0.303008 -1.310654
 29
 43.837727
  C 0.923194 0.076835 0.541862
  C 2.292824 0.291535 0.372538
  C 3.175329 0.708157 1.538696
  C 2.432489 1.073880 2.823616
  C 3.423645 1.444662 3.923759
  C 2.952666 -0.275560 -0.831769
  C 4.328961 -0.283318 -1.038455
  C 5.037034 -0.815812 -2.100274
  C 4.574743 -1.494997 -3.346527
  C 3.092635 -1.695116 -3.618982
  H 2.988774 -2.191518 -4.580845
  O 6.363986 -0.758428 -2.084319
  H 0.420873 0.288338 1.463384
  H 0.322721 -0.301810 -0.266799
  H 2.379742 1.048281 -0.550127
  H 3.785839 1.567355 1.252879
  H 3.851734 -0.119204 1.765603
  H 1.832588 0.229505 3.166265
  H 1.768561 1.922613 2.646682
  H 4.091498 0.612930 4.140472
  H 2.896384 1.699859 4.839957
  H 4.026164 2.302349 3.632756
  H 2.297495 -0.758768 -1.535502
  H 4.938812 0.173447 -0.268729
  H 5.078307 -2.466844 -3.363834
  H 5.018947 -0.930812 -4.173901
  H 2.566820 -0.747801 -3.684517
  H 2.633434 -2.337007 -2.872894
  H 6.734253 -0.325724 -1.294808
 29
 36.448030
  C 0.932014 0.108664 0.536833
  C 2.267679 0.288528 0.395188
  C 3.163316 0.691690 1.536721
  C 2.447454 1.025331 2.845716
  C 3.459103 1.394718 3.925798
  C 2.914817 -0.170301 -0.877521
  C 4.323592 -0.216406 -1.067758
  C 5.036301 -0.798130 -2.091871
  C 4.580625 -1.533539 -3.309156
  C 3.099047 -1.737558 -3.583118
  H 2.999188 -2.288327 -4.515569
  O 6.365221 -0.741687 -2.070152
  H 0.421818 0.328127 1.454499
  H 0.321097 -0.246937 -0.274573
  H 2.558083 0.982392 -0.842474
  H 3.756775 1.564305 1.253999
  H 3.856542 -0.131040 1.728380
  H 1.868784 0.166594 3.187474
  H 1.766590 1.865339 2.698224
  H 4.141690 0.569561 4.116204
  H 2.950463 1.631531 4.856928
  H 4.043345 2.263815 3.631568
  H 2.258663 -0.687526 -1.558143
  H 4.923809 0.263760 -0.305349
  H 5.078761 -2.508203 -3.275837
  H 5.034838 -1.012642 -4.159047
  H 2.581335 -0.791336 -3.708340
  H 2.628045 -2.331638 -2.805268
  H 6.732684 -0.272260 -1.299196
 29
 23.963215
  C 0.931903 0.119651 0.517378
  C 2.253551 0.309965 0.398461
  C 3.162660 0.690246 1.520638
  C 2.475522 0.949842 2.861187
  C 3.502661 1.322069 3.925508
  C 2.864692 0.015830 -0.952806
  C 4.296136 -0.092961 -1.105254
  C 5.020786 -0.762023 -2.068304
  C 4.574805 -1.585411 -3.229351
  C 3.096635 -1.787156 -3.519319
  H 3.006614 -2.418652 -4.400133
  O 6.346184 -0.723127 -2.021497
  H 0.409639 0.265940 1.444796
  H 0.326573 -0.190931 -0.316806
  H 2.601604 1.090764 -1.161487
  H 3.719808 1.592312 1.253137
  H 3.889408 -0.116722 1.652461
  H 1.940276 0.056332 3.185304
  H 1.756873 1.764851 2.761916
  H 4.219545 0.517005 4.070849
  H 3.011597 1.510336 4.877237
  H 4.046354 2.221295 3.644338
  H 2.232055 -0.578449 -1.595372
  H 4.885824 0.430130 -0.363100
  H 5.054472 -2.562687 -3.107030
  H 5.057760 -1.145392 -4.108880
  H 2.599707 -0.847314 -3.740496
  H 2.595880 -2.300556 -2.703424
  H 6.710591 -0.200970 -1.284418
 29
 19.222590
  C 0.920998 0.173798 0.520033
  C 2.254194 0.268690 0.414930
  C 3.164469 0.670768 1.524988
  C 2.491345 0.944462 2.868921
  C 3.530592 1.300356 3.927324
  C 2.837842 -0.016894 -0.941932
  C 4.284181 -0.096579 -1.086380
  C 5.020697 -0.746315 -2.053408
  C 4.585479 -1.562605 -3.222457
  C 3.111254 -1.779381 -3.518963
  H 3.031491 -2.386817 -4.417448
  O 6.344275 -0.682394 -2.008806
  H 0.398296 0.363201 1.439309
  H 0.306272 -0.119705 -0.313504
  H 2.496059 0.921961 -1.419968
  H 3.708930 1.573259 1.231592
  H 3.903894 -0.125149 1.661048
  H 1.940632 0.061014 3.196045
  H 1.786346 1.771803 2.773256
  H 4.236437 0.484624 4.067985
  H 3.048490 1.495345 4.882215
  H 4.085544 2.191729 3.642845
  H 2.288975 -0.799371 -1.458064
  H 4.862893 0.440157 -0.345796
  H 5.081939 -2.533643 -3.118792
  H 5.061760 -1.102081 -4.095765
  H 2.597241 -0.842445 -3.709145
  H 2.617005 -2.326474 -2.720653
  H 6.701482 -0.164169 -1.265068
 29
 19.122636
  C 0.929529 0.037023 0.590383
  C 2.267501 0.094829 0.489719
  C 3.158062 0.634992 1.559909
  C 2.469791 1.063029 2.856377
  C 3.500725 1.509599 3.890951
  C 2.871239 -0.311843 -0.821729
  C 4.324079 -0.354332 -0.966466
  C 5.046722 -0.839956 -2.034584
  C 4.578970 -1.415885 -3.330611
  C 3.093396 -1.521907 -3.644608
  H 2.986060 -1.915861 -4.652233
  O 6.371813 -0.821894 -1.987146
  H 0.400117 0.455467 1.429297
  H 0.321688 -0.444283 -0.154113
  H 2.478481 0.475914 -1.495530
  H 3.708754 1.492953 1.167014
  H 3.892312 -0.141320 1.803810
  H 1.893252 0.228570 3.266154
  H 1.780361 1.894020 2.662143
  H 4.184517 0.700258 4.133345
  H 3.009148 1.817567 4.808333
  H 4.080668 2.351206 3.520990
  H 2.396603 -1.221893 -1.198704
  H 4.908373 0.060030 -0.154739
  H 5.040073 -2.409794 -3.412892
  H 5.071287 -0.821322 -4.111655
  H 2.603076 -0.554091 -3.613740
  H 2.588020 -2.212129 -2.978886
  H 6.744396 -0.451799 -1.166446
 29
 17.389418
  C 0.934161 -0.037942 0.625274
  C 2.265257 0.083065 0.492808
  C 3.161044 0.615610 1.561098
  C 2.474280 1.075218 2.845455
  C 3.502240 1.574220 3.856147
  C 2.860103 -0.324338 -0.818773
  C 4.315612 -0.382004 -0.947580
  C 5.040791 -0.861077 -2.016536
  C 4.575407 -1.397437 -3.326588
  C 3.096207 -1.433561 -3.668872
  H 2.991729 -1.799240 -4.687351
  O 6.365116 -0.874187 -1.953957
  H 0.417228 0.227762 1.527483
  H 0.320442 -0.416212 -0.173977
  H 2.470014 0.391482 -1.562177
  H 3.722133 1.461432 1.151360
  H 3.887001 -0.160493 1.823196
  H 1.916932 0.248397 3.288514
  H 1.772866 1.882005 2.625796
  H 4.201665 0.784210 4.120583
  H 3.009985 1.905285 4.767088
  H 4.065602 2.413691 3.454810
  H 2.404006 -1.267944 -1.138899
  H 4.898587 -0.006107 -0.118801
  H 4.993740 -2.406957 -3.411617
  H 5.107310 -0.818882 -4.090797
  H 2.646750 -0.446284 -3.625874
  H 2.546662 -2.112936 -3.024435
  H 6.736142 -0.539627 -1.119035
