 18
 0.000000
  C 0.903217 0.052776 0.200424
  C 2.403149 0.058794 0.093707
  C 3.255788 -0.011882 1.346300
  C 2.526471 -0.087230 2.681548
  H 3.253758 -0.132721 3.487735
  C 3.012140 0.125308 -1.085008
  C 2.362412 0.201026 -2.426876
  H 1.281425 0.198481 -2.381757
  H 4.095009 0.127422 -1.122416
  H 0.559733 -0.005200 1.227808
  H 0.488430 -0.802129 -0.332022
  H 0.488432 0.962155 -0.232466
  H 3.906807 0.867195 1.363358
  H 3.906806 -0.887297 1.264353
  H 1.901780 -0.975451 2.738886
  H 1.901770 0.788911 2.838443
  H 2.686060 -0.642778 -3.038773
  H 2.686054 1.108298 -2.939955
 18
 3.917765
  C 0.886199 0.054622 0.167749
  C 2.366031 0.059227 0.086124
  C 3.222796 -0.011473 1.339083
  C 2.515086 -0.087468 2.685770
  H 3.261208 -0.132063 3.476178
  C 3.006572 0.125023 -1.079877
  C 2.377601 0.201312 -2.431946
  H 1.293618 0.198306 -2.378701
  H 4.090281 0.125784 -1.093319
  H 0.782160 -0.004934 1.223128
  H 0.437101 -0.804101 -0.325429
  H 0.437102 0.963381 -0.225691
  H 3.873708 0.866817 1.347450
  H 3.873728 -0.885143 1.248595
  H 1.896743 -0.980105 2.762489
  H 1.896732 0.790870 2.862424
  H 2.699911 -0.643799 -3.040688
  H 2.699904 1.109517 -2.941732
 18
 13.235989
  C 0.856787 0.055908 0.144932
  C 2.341693 0.059905 0.074077
  C 3.199743 -0.011228 1.334716
  C 2.504634 -0.088312 2.700750
  H 3.268403 -0.132209 3.478729
  C 3.006707 0.124980 -1.079155
  C 2.388444 0.201900 -2.442322
  H 1.304603 0.199009 -2.391004
  H 4.090574 0.124883 -1.077437
  H 0.964118 -0.003019 1.189182
  H 0.393466 -0.807433 -0.305159
  H 0.393469 0.964400 -0.205174
  H 3.854473 0.870322 1.338510
  H 3.854488 -0.887616 1.239311
  H 1.890393 -0.983419 2.794974
  H 1.890384 0.790516 2.895076
  H 2.713169 -0.646714 -3.051076
  H 2.713161 1.113581 -2.951723
 18
 25.893323
  C 0.829408 0.056370 0.136732
  C 2.330769 0.059658 0.078457
  C 3.188071 -0.011088 1.332286
  C 2.502643 -0.087554 2.687437
  H 3.265769 -0.131082 3.458884
  C 3.010401 0.124646 -1.073261
  C 2.400029 0.201033 -2.427002
  H 1.311037 0.197967 -2.372677
  H 4.093902 0.124406 -1.068980
  H 1.108724 -0.000775 1.149433
  H 0.357456 -0.823926 -0.290019
  H 0.357456 0.979086 -0.188278
  H 3.836845 0.863107 1.334776
  H 3.836872 -0.880037 1.236408
  H 1.889925 -0.980737 2.783870
  H 1.889943 0.789084 2.883722
  H 2.723117 -0.641849 -3.030575
  H 2.723115 1.106459 -2.931927
 18
 39.139101
  C 0.808177 0.057367 0.119009
  C 2.325317 0.059507 0.081026
  C 3.193172 -0.011571 1.340871
  C 2.499470 -0.088601 2.706123
  H 3.259851 -0.132370 3.481971
  C 3.005550 0.124344 -1.067976
  C 2.393873 0.201331 -2.432174
  H 1.310299 0.198289 -2.378194
  H 4.090600 0.124005 -1.061968
  H 1.219924 0.002138 1.097718
  H 0.344988 -0.823240 -0.292630
  H 0.344992 0.978693 -0.190946
  H 3.843802 0.866452 1.342075
  H 3.843867 -0.884217 1.243295
  H 1.885432 -0.980238 2.800642
  H 1.885436 0.786716 2.900330
  H 2.718226 -0.645796 -3.038259
  H 2.718222 1.111248 -2.939087
 18
 51.979923
  C 0.788507 0.057357 0.119007
  C 2.326128 0.059148 0.087027
  C 3.200621 -0.011808 1.344465
  C 2.497357 -0.088279 2.699728
  H 3.253643 -0.132830 3.489316
  C 3.005278 0.124152 -1.064925
  C 2.394245 0.200627 -2.419811
  H 1.314512 0.197289 -2.360389
  H 4.088200 0.123978 -1.062062
  H 1.305459 0.005031 1.046128
  H 0.332325 -0.829095 -0.284683
  H 0.332341 0.983611 -0.182386
  H 3.855936 0.872007 1.345768
  H 3.855813 -0.889981 1.246355
  H 1.875863 -0.986220 2.785809
  H 1.875803 0.794364 2.886291
  H 2.717530 -0.646692 -3.026092
  H 2.717552 1.110783 -2.926898
 18
 62.448279
  C 0.768209 0.057988 0.107989
  C 2.324375 0.059101 0.088045
  C 3.211074 -0.012464 1.356232
  C 2.503385 -0.088853 2.709880
  H 3.250168 -0.133442 3.500050
  C 3.001985 0.124092 -1.063757
  C 2.391590 0.200388 -2.415690
  H 1.314447 0.196894 -2.353544
  H 4.086538 0.123891 -1.060398
  H 1.362876 0.007925 0.995041
  H 0.325954 -0.830057 -0.294928
  H 0.325967 0.985741 -0.192462
  H 3.864064 0.870203 1.357375
  H 3.863931 -0.889464 1.258084
  H 1.883340 -0.981021 2.790729
  H 1.883296 0.788607 2.890609
  H 2.714287 -0.646356 -3.021213
  H 2.714301 1.109881 -2.922104
 18
 71.405478
  C 0.756449 0.057295 0.120863
  C 2.334892 0.058396 0.101372
  C 3.219167 -0.012109 1.350596
  C 2.501418 -0.088590 2.705633
  H 3.247926 -0.133849 3.507747
  C 3.008579 0.123551 -1.053326
  C 2.393168 0.200296 -2.414152
  H 1.312375 0.196699 -2.350793
  H 4.090898 0.123439 -1.051073
  H 1.420124 0.009422 0.969145
  H 0.324405 -0.837726 -0.288321
  H 0.324403 0.992668 -0.185019
  H 3.867519 0.866420 1.348859
  H 3.867665 -0.884989 1.249999
  H 1.875075 -0.985140 2.780715
  H 1.875037 0.793817 2.881120
  H 2.715511 -0.645821 -3.019509
  H 2.715455 1.109106 -2.920493
 18
 79.140928
  C 0.740675 0.057640 0.114928
  C 2.335899 0.058348 0.102415
  C 3.231911 -0.012505 1.357646
  C 2.506299 -0.089141 2.715214
  H 3.242956 -0.134551 3.519814
  C 3.002828 0.123761 -1.056835
  C 2.391890 0.199735 -2.404216
  H 1.316176 0.196038 -2.339157
  H 4.074252 0.123817 -1.057429
  H 1.453655 0.011840 0.926430
  H 0.331451 -0.841071 -0.307437
  H 0.331445 0.998180 -0.203636
  H 3.878908 0.865811 1.353498
  H 3.879005 -0.884844 1.254659
  H 1.885449 -0.974352 2.782901
  H 1.885446 0.782791 2.882070
  H 2.712137 -0.640635 -3.005234
  H 2.712032 1.102250 -2.906827
 18
 85.588948
  C 0.724356 0.057349 0.120685
  C 2.347648 0.057922 0.110552
  C 3.246285 -0.012764 1.362251
  C 2.512461 -0.089168 2.715304
  H 3.234031 -0.134303 3.514724
  C 3.005384 0.123453 -1.051022
  C 2.384176 0.199355 -2.399370
  H 1.307360 0.195233 -2.328520
  H 4.103989 0.123915 -1.057625
  H 1.488813 0.013174 0.903176
  H 0.336365 -0.840204 -0.321925
  H 0.336345 0.999053 -0.218104
  H 3.891835 0.865215 1.358922
  H 3.891976 -0.884946 1.260071
  H 1.882870 -0.984350 2.778976
  H 1.882881 0.793116 2.879345
  H 2.703230 -0.644711 -3.004129
  H 2.703144 1.106360 -2.905683
 18
 91.231070
  C 0.694414 0.057387 0.121311
  C 2.359082 0.057409 0.120797
  C 3.259384 -0.013600 1.377151
  C 2.524820 -0.089054 2.712564
  H 3.250915 -0.135206 3.529348
  C 3.005766 0.123127 -1.043920
  C 2.380297 0.199385 -2.399946
  H 1.300137 0.195266 -2.330176
  H 4.095930 0.123788 -1.053097
  H 1.508302 0.014518 0.880100
  H 0.339368 -0.835503 -0.352531
  H 0.339374 0.997956 -0.248957
  H 3.904384 0.864354 1.377032
  H 3.904492 -0.886100 1.278110
  H 1.895805 -0.981375 2.768981
  H 1.895838 0.791198 2.869146
  H 2.700442 -0.645813 -3.005558
  H 2.700145 1.107291 -2.906837
 18
 96.399587
  C 0.666178 0.057042 0.125577
  C 2.379173 0.056703 0.131446
  C 3.278493 -0.013987 1.383804
  C 2.532699 -0.089066 2.713640
  H 3.246967 -0.135385 3.534395
  C 3.004482 0.122896 -1.041846
  C 2.371984 0.199045 -2.392723
  H 1.291976 0.194969 -2.321305
  H 4.099230 0.123997 -1.060710
  H 1.526808 0.016181 0.849450
  H 0.356215 -0.832314 -0.386124
  H 0.356224 0.998347 -0.282831
  H 3.924903 0.865609 1.386433
  H 3.924991 -0.888365 1.287415
  H 1.902019 -0.979621 2.761609
  H 1.902066 0.790329 2.861511
  H 2.690278 -0.644621 -2.998341
  H 2.690212 1.105510 -2.899687
 18
 100.483922
  C 0.619294 0.056735 0.131040
  C 2.405763 0.056184 0.140518
  C 3.304040 -0.014755 1.396372
  C 2.549620 -0.089087 2.713872
  H 3.256101 -0.135862 3.542963
  C 3.006256 0.122891 -1.041332
  C 2.367434 0.198866 -2.388666
  H 1.289717 0.194730 -2.316198
  H 4.087130 0.124515 -1.069319
  H 1.531226 0.018807 0.802485
  H 0.363300 -0.824539 -0.425275
  H 0.363348 0.994955 -0.322477
  H 3.945136 0.856081 1.404692
  H 3.945412 -0.881158 1.306592
  H 1.917500 -0.978877 2.753354
  H 1.917353 0.790784 2.853218
  H 2.686927 -0.650769 -2.999229
  H 2.686771 1.111636 -2.899688
 18
 104.348318
  C 0.545101 0.056615 0.129074
  C 2.443331 0.055563 0.146570
  C 3.331082 -0.014382 1.388664
  C 2.562278 -0.088477 2.705052
  H 3.254098 -0.135105 3.533485
  C 3.026386 0.122651 -1.041953
  C 2.382673 0.198373 -2.376767
  H 1.295700 0.193971 -2.294022
  H 4.108177 0.124487 -1.078660
  H 1.542082 0.020224 0.774195
  H 0.322398 -0.823804 -0.454305
  H 0.322511 0.996925 -0.351707
  H 3.980451 0.867878 1.397454
  H 3.980460 -0.891773 1.298382
  H 1.931995 -0.972189 2.738548
  H 1.931798 0.786001 2.837498
  H 2.694498 -0.657474 -2.990390
  H 2.694997 1.117946 -2.890007
