 17
 0.000000
  H 1.434013 -0.075941 0.038977
  C 2.507103 -0.083185 0.024755
  C 3.219651 -0.594064 -0.978188
  C 4.656710 -0.606440 -1.002481
  C 5.376500 -1.121973 -2.014557
  C 6.813889 -1.132429 -2.035081
  C 7.535114 -1.642693 -3.036821
  C 9.024183 -1.660820 -3.072398
  H 3.005289 0.351697 0.878505
  H 2.708682 -1.027381 -1.828851
  H 5.162394 -0.172071 -0.149745
  H 4.871967 -1.556636 -2.867874
  H 7.318629 -0.697688 -1.181615
  H 7.038183 -2.079183 -3.893710
  H 9.453550 -1.207115 -2.181705
  H 9.385049 -1.115396 -3.945259
  H 9.385046 -2.687545 -3.144430
 17
 0.787920
  H 1.418057 -0.200344 0.026440
  C 2.498020 -0.174821 0.046621
  C 3.225383 -0.624923 -0.959462
  C 4.656961 -0.562642 -0.997450
  C 5.402892 -1.020885 -2.028412
  C 6.843307 -1.010843 -2.046957
  C 7.549718 -1.496816 -3.067153
  C 9.012694 -1.735826 -3.073612
  H 2.951174 0.286148 0.911195
  H 2.740147 -1.057909 -1.831184
  H 5.151677 -0.133021 -0.127780
  H 4.911931 -1.450091 -2.886340
  H 7.344561 -0.627512 -1.161999
  H 7.020030 -1.863851 -3.945110
  H 9.495268 -1.281266 -2.211264
  H 9.474155 -1.342640 -3.986029
  H 9.199538 -2.811827 -3.052388
 17
 6.139617
  H 1.395818 -0.345284 0.006695
  C 2.462962 -0.218267 0.018510
  C 3.232366 -0.642161 -0.984899
  C 4.662748 -0.534234 -0.989150
  C 5.437639 -0.960590 -2.006293
  C 6.899297 -0.874879 -1.977482
  C 7.576310 -1.403548 -2.984351
  C 9.005094 -1.824422 -3.109105
  H 2.879489 0.268292 0.892149
  H 2.780005 -1.079431 -1.865140
  H 5.114390 -0.097674 -0.109570
  H 4.950239 -1.385112 -2.874971
  H 7.336767 -0.515311 -1.063107
  H 7.066391 -1.700922 -3.888560
  H 9.621714 -1.460211 -2.285990
  H 9.411753 -1.442008 -4.049575
  H 9.030884 -2.914791 -3.162225
 17
 8.650627
  H 1.395184 -0.403260 -0.031367
  C 2.470500 -0.359743 0.031372
  C 3.251627 -0.659488 -1.004731
  C 4.683963 -0.513948 -1.000032
  C 5.461023 -0.810483 -2.054305
  C 6.899021 -0.665335 -2.045498
  C 7.594263 -1.342956 -2.961889
  C 8.956293 -1.914663 -3.083376
  H 2.882912 -0.015220 0.969566
  H 2.806786 -1.012019 -1.927262
  H 5.138462 -0.176396 -0.075917
  H 5.003037 -1.170229 -2.967784
  H 7.360690 -0.289850 -1.140667
  H 7.000764 -1.588273 -3.846989
  H 9.645775 -1.534248 -2.329493
  H 9.377912 -1.713805 -4.067596
  H 8.876880 -2.995250 -2.965047
 17
 23.519158
  H 1.523101 -0.551566 0.087349
  C 2.598332 -0.515075 0.089660
  C 3.307065 -0.639731 -1.030917
  C 4.735435 -0.510241 -1.098867
  C 5.447249 -0.725730 -2.225224
  C 6.850985 -0.380631 -2.283527
  C 7.538978 -1.283321 -3.005110
  C 8.836607 -1.997930 -2.912345
  H 3.074626 -0.385100 1.049095
  H 2.792806 -0.831847 -1.966402
  H 5.244664 -0.272423 -0.169056
  H 4.925085 -1.011970 -3.123360
  H 7.290764 0.003586 -1.371120
  H 7.081208 -1.505483 -3.978202
  H 9.403746 -1.702817 -2.018985
  H 9.461057 -1.837076 -3.789920
  H 8.618085 -3.058703 -2.834362
 17
 49.421963
  H 1.617006 -0.563726 0.056743
  C 2.702809 -0.574294 0.062185
  C 3.396195 -0.703040 -1.065972
  C 4.837000 -0.649159 -1.143730
  C 5.525733 -0.721641 -2.305859
  C 6.870729 -0.138651 -2.368217
  C 7.422893 -1.198011 -3.023394
  C 8.642735 -2.026880 -2.769953
  H 3.181707 -0.491957 1.022410
  H 2.877708 -0.853764 -2.006908
  H 5.376670 -0.608840 -0.209419
  H 4.954284 -0.859440 -3.214772
  H 7.329993 0.206884 -1.454529
  H 7.066167 -1.325358 -4.047250
  H 9.092897 -1.806624 -1.812787
  H 9.380996 -1.854591 -3.559781
  H 8.368433 -3.081786 -2.828045
 17
 58.432091
  H 1.977366 -0.886099 0.076910
  C 3.060862 -0.878551 0.000285
  C 3.667345 -0.744130 -1.189117
  C 5.068957 -0.713829 -1.355539
  C 5.683814 -0.591016 -2.606283
  C 6.920904 0.266593 -2.500396
  C 7.219915 -1.009281 -3.033854
  C 8.101768 -2.075758 -2.451269
  H 3.617742 -0.983851 0.914957
  H 3.073196 -0.641794 -2.097011
  H 5.682538 -0.858844 -0.472653
  H 5.064881 -0.627275 -3.478701
  H 7.304696 0.562560 -1.529404
  H 7.112182 -1.100265 -4.101082
  H 8.316127 -1.870993 -1.400455
  H 9.045265 -2.106342 -3.009483
  H 7.635491 -3.039489 -2.526803
 17
 66.302955
  H 1.988396 -0.860571 0.056160
  C 3.061871 -0.829207 -0.033528
  C 3.671647 -0.783666 -1.224079
  C 5.087692 -0.778037 -1.385435
  C 5.694453 -0.751428 -2.627322
  C 6.898652 0.345718 -2.344458
  C 7.194793 -0.917990 -2.965871
  C 8.043539 -2.086938 -2.507356
  H 3.620933 -0.805733 0.886101
  H 3.079124 -0.779722 -2.133811
  H 5.669311 -0.780322 -0.477908
  H 5.087256 -0.768915 -3.519248
  H 7.303293 0.392747 -1.331828
  H 7.297479 -0.808636 -4.046759
  H 8.110248 -2.124694 -1.418450
  H 9.044159 -1.991361 -2.913196
  H 7.611829 -3.025534 -2.857456
 17
 79.736544
  H 1.986203 -0.852461 0.032018
  C 3.054544 -0.812111 -0.071992
  C 3.648927 -0.861616 -1.262114
  C 5.078086 -0.803794 -1.437538
  C 5.662815 -0.839094 -2.647450
  C 7.123768 0.434495 -2.196191
  C 7.170806 -0.824262 -2.935851
  C 7.946510 -2.065603 -2.521826
  H 3.622459 -0.726004 0.836236
  H 3.056844 -0.945935 -2.164335
  H 5.663368 -0.735085 -0.531271
  H 5.064332 -0.936282 -3.543298
  H 7.558875 0.269770 -1.194978
  H 7.323832 -0.622401 -4.001061
  H 7.959730 -2.180319 -1.437473
  H 8.974902 -1.992869 -2.871039
  H 7.492997 -2.957157 -2.954368
 17
 84.511694
  H 1.952581 -0.918748 0.033031
  C 3.015514 -0.795826 -0.089138
  C 3.612074 -0.950224 -1.267249
  C 5.032881 -0.787606 -1.468963
  C 5.624963 -0.927489 -2.659638
  C 7.318715 0.439834 -2.073043
  C 7.117969 -0.777042 -2.860687
  C 7.887139 -2.064102 -2.532063
  H 3.575254 -0.545303 0.797119
  H 3.033460 -1.218516 -2.142283
  H 5.614900 -0.530856 -0.595444
  H 5.044390 -1.199762 -3.530215
  H 7.940514 0.255800 -1.175881
  H 7.280191 -0.509900 -3.913761
  H 7.944043 -2.209426 -1.455178
  H 8.897926 -2.006017 -2.927388
  H 7.391237 -2.930037 -2.969940
 17
 91.948215
  H 1.896181 -0.859504 0.041264
  C 2.955883 -0.746883 -0.080249
  C 3.564718 -0.997042 -1.240651
  C 4.981676 -0.822709 -1.454990
  C 5.593503 -1.025745 -2.620889
  C 7.376165 0.405584 -2.067472
  C 7.092831 -0.811254 -2.752218
  C 7.879016 -2.131209 -2.544473
  H 3.517545 -0.501233 0.800338
  H 2.999844 -1.390951 -2.077858
  H 5.556349 -0.432863 -0.624367
  H 5.068203 -1.442514 -3.466326
  H 8.161838 0.639326 -1.342835
  H 7.266773 -0.417378 -3.771132
  H 8.034497 -2.309485 -1.479054
  H 8.849399 -2.075304 -3.028471
  H 7.332289 -2.976104 -2.958949
