23

C 0.97579 0.137332 0.393142
C 2.453972 0.138831 0.396445
C 3.235887 0.609601 1.567949
C 2.454651 1.098519 2.78505
C 3.400218 1.544794 3.895611
C 3.07476 -0.323868 -0.755623
C 4.452396 -0.411652 -0.974602
C 5.123831 -0.863395 -2.100714
H 4.763810147796258 -1.2385437130654826 -3.0358869407247644
O 6.448567 -0.86179 -2.097024
H 0.53639 0.506813 1.31287
H 0.606624 -0.875729 0.225913
H 0.606339 0.752985 -0.428456
H 3.892013 1.422462 1.236076
H 3.892206 -0.206765 1.89066
H 1.816409 0.300727 3.170305
H 1.816264 1.941012 2.511316
H 4.036296 0.723883 4.220901
H 2.831617 1.89043 4.756103
H 4.036115 2.362679 3.562473
H 2.419633 -0.642347 -1.548686
H 5.073532 -0.080521 -0.149771
H 6.820588 -0.526463 -1.260938
