 23
 0.000000
  C 0.975790 0.137332 0.393142
  C 2.453972 0.138831 0.396445
  C 3.235887 0.609601 1.567949
  C 2.454651 1.098519 2.785050
  C 3.400218 1.544794 3.895611
  C 3.074760 -0.323868 -0.755623
  C 4.452396 -0.411652 -0.974602
  C 5.123831 -0.863395 -2.100714
  H 4.763810 -1.238544 -3.035887
  O 6.448567 -0.861790 -2.097024
  H 0.536390 0.506813 1.312870
  H 0.606624 -0.875729 0.225913
  H 0.606339 0.752985 -0.428456
  H 3.892013 1.422462 1.236076
  H 3.892206 -0.206765 1.890660
  H 1.816409 0.300727 3.170305
  H 1.816264 1.941012 2.511316
  H 4.036296 0.723883 4.220901
  H 2.831617 1.890430 4.756103
  H 4.036115 2.362679 3.562473
  H 2.419633 -0.642347 -1.548686
  H 5.073532 -0.080521 -0.149771
  H 6.820588 -0.526463 -1.260938
 23
 0.000000
  C 1.005666 0.132244 0.380469
  C 2.483780 0.137872 0.394046
  C 3.256217 0.610811 1.570952
  C 2.465178 1.097532 2.782591
  C 3.401754 1.546434 3.899694
  C 3.128905 -0.334096 -0.781110
  C 4.439615 -0.426929 -1.012688
  C 5.077712 -0.861078 -2.094941
  H 4.737126 -1.238739 -3.036366
  O 6.341108 -0.839200 -2.040719
  H 0.558854 0.500486 1.297119
  H 0.640502 -0.881843 0.210687
  H 0.640215 0.746871 -0.443682
  H 3.912360 1.425506 1.243641
  H 3.912555 -0.203722 1.898224
  H 1.826504 0.297956 3.163408
  H 1.826357 1.938241 2.504420
  H 4.037847 0.727299 4.229403
  H 2.826223 1.890471 4.756211
  H 4.037664 2.366096 3.570977
  H 2.480197 -0.654397 -1.578704
  H 5.071023 -0.098498 -0.194602
  H 6.660547 -0.480324 -1.145916
 23
 0.000000
  C 1.035651 0.127609 0.368925
  C 2.513605 0.137584 0.393317
  C 3.276014 0.612779 1.575841
  C 2.474701 1.097156 2.781655
  C 3.401754 1.548797 3.905578
  C 3.185447 -0.344494 -0.807019
  C 4.431287 -0.442181 -1.050705
  C 5.035953 -0.859961 -2.092153
  H 4.713071 -1.239776 -3.038936
  O 6.237000 -0.820606 -1.994373
  H 0.581062 0.494524 1.282277
  H 0.674723 -0.887545 0.196483
  H 0.674435 0.741169 -0.457885
  H 3.932137 1.429403 1.253333
  H 3.932333 -0.199825 1.907914
  H 1.835612 0.295700 3.157795
  H 1.835463 1.935987 2.498809
  H 4.037824 0.731533 4.239941
  H 2.818960 1.891130 4.757858
  H 4.037639 2.370330 3.581516
  H 2.543538 -0.666693 -1.609336
  H 5.074111 -0.116830 -0.240313
  H 6.497178 -0.437576 -1.039345
 23
 0.000000
  C 1.065467 0.123593 0.358920
  C 2.543153 0.138137 0.394683
  C 3.294969 0.615671 1.583034
  C 2.482908 1.097553 2.782643
  C 3.399886 1.552043 3.913662
  C 3.244515 -0.355083 -0.833408
  C 4.427901 -0.457388 -1.088603
  C 4.999095 -0.860280 -2.092937
  H 4.691588 -1.241865 -3.044119
  O 6.137135 -0.806401 -1.958962
  H 0.602732 0.489089 1.268745
  H 0.709017 -0.892670 0.183717
  H 0.708728 0.736045 -0.470651
  H 3.951027 1.434325 1.265574
  H 3.951224 -0.194904 1.920155
  H 1.843425 0.294120 3.153863
  H 1.843275 1.934407 2.494878
  H 4.035889 0.736745 4.252917
  H 2.809497 1.892561 4.761429
  H 4.035704 2.375542 3.594493
  H 2.609796 -0.679257 -1.640636
  H 5.083382 -0.135550 -0.286990
  H 6.330765 -0.398918 -0.942967
 23
 0.000000
  C 1.094667 0.120448 0.351083
  C 2.571961 0.139786 0.398775
  C 3.312606 0.619739 1.593153
  C 2.489326 1.098966 2.786162
  C 3.395663 1.556412 3.924544
  C 3.306331 -0.365965 -0.860525
  C 4.430088 -0.472627 -1.126579
  C 4.967940 -0.862477 -2.098395
  H 4.672817 -1.245421 -3.052949
  O 6.042681 -0.797161 -1.935918
  H 0.623416 0.484428 1.257138
  H 0.742941 -0.896963 0.173018
  H 0.742651 0.731752 -0.481349
  H 3.968546 1.440521 1.280992
  H 3.968744 -0.188707 1.935571
  H 1.849475 0.293457 3.152216
  H 1.849324 1.933745 2.493233
  H 4.031548 0.743176 4.268932
  H 2.797346 1.895000 4.767514
  H 4.031362 2.381975 3.610510
  H 2.679205 -0.692186 -1.672848
  H 5.099559 -0.154800 -0.334985
  H 6.162062 -0.365121 -0.858698
 23
 0.000000
  C 1.122155 0.118678 0.346666
  C 2.598925 0.142990 0.406740
  C 3.327911 0.625416 1.607281
  C 2.493049 1.101849 2.793341
  C 3.388266 1.562327 3.939276
  C 3.370926 -0.377396 -0.889009
  C 4.438965 -0.488117 -1.165175
  C 4.944301 -0.867539 -2.110987
  H 4.657611 -1.251377 -3.067750
  O 5.956460 -0.794131 -1.928342
  H 0.642102 0.481054 1.248735
  H 0.775363 -0.899910 0.165671
  H 0.775073 0.728805 -0.488695
  H 3.983678 1.448408 1.300619
  H 3.983875 -0.180822 1.955197
  H 1.852868 0.294184 3.154028
  H 1.852717 1.934472 2.495047
  H 4.023978 0.751232 4.288993
  H 2.781766 1.898885 4.777198
  H 4.023792 2.390031 3.630572
  H 2.751734 -0.705717 -1.706556
  H 5.123724 -0.174830 -0.384922
  H 5.994415 -0.337449 -0.789689
 23
 0.000000
  C 1.147340 0.118789 0.346934
  C 2.623431 0.148322 0.420007
  C 3.340110 0.633303 1.626913
  C 2.493159 1.106760 2.805573
  C 3.376620 1.570382 3.959339
  C 3.439934 -0.389947 -0.920281
  C 4.455437 -0.504344 -1.205603
  C 4.929260 -0.876598 -2.133530
  H 4.646295 -1.260827 -3.091245
  O 5.879398 -0.798450 -1.939071
  H 0.658086 0.479450 1.244739
  H 0.805759 -0.901016 0.162907
  H 0.805470 0.727700 -0.491459
  H 3.995637 1.458614 1.326025
  H 3.995834 -0.170616 1.980602
  H 1.852687 0.296830 3.160621
  H 1.852536 1.937119 2.501642
  H 4.012093 0.761534 4.314650
  H 2.761579 1.904779 4.791885
  H 4.011908 2.400334 3.656230
  H 2.829128 -0.720444 -1.743243
  H 5.156881 -0.196211 -0.438217
  H 5.827942 -0.316725 -0.737990
 23
 0.000000
  C 1.168641 0.121523 0.353730
  C 2.643890 0.156438 0.440205
  C 3.347807 0.644008 1.653563
  C 2.488464 1.114352 2.824477
  C 3.359715 1.581172 3.986213
  C 3.513645 -0.404073 -0.955472
  C 4.480244 -0.521569 -1.248508
  C 4.924619 -0.891055 -2.169513
  H 4.639666 -1.275090 -3.126720
  O 5.815104 -0.811630 -1.971872
  H 0.669940 0.480380 1.247050
  H 0.832466 -0.899518 0.166623
  H 0.832179 0.729198 -0.487742
  H 4.003025 1.471710 1.358629
  H 4.003220 -0.157520 2.013204
  H 1.847752 0.302084 3.173706
  H 1.847604 1.942374 2.514729
  H 3.994882 0.774641 4.347292
  H 2.735923 1.913308 4.813135
  H 3.994699 2.413441 3.688874
  H 2.911546 -0.736783 -1.783942
  H 5.199427 -0.219151 -0.495392
  H 5.668081 -0.304439 -0.707313
 23
 0.000000
  C 1.184376 0.127694 0.369086
  C 2.658633 0.168046 0.469098
  C 3.349580 0.658184 1.688860
  C 2.477798 1.125336 2.851830
  C 3.336623 1.595343 4.021507
  C 3.592719 -0.420427 -0.996209
  C 4.513930 -0.540235 -1.294992
  C 4.931769 -0.912571 -2.223081
  H 4.638287 -1.295727 -3.178065
  O 5.767042 -0.835208 -2.030574
  H 0.676178 0.484695 1.257786
  H 0.853699 -0.894575 0.178917
  H 0.853415 0.734140 -0.475449
  H 4.004424 1.488302 1.399939
  H 4.004615 -0.140929 2.054513
  H 1.836905 0.310706 3.195175
  H 1.836760 1.950996 2.536199
  H 3.971418 0.791152 4.388414
  H 2.704047 1.925163 4.842664
  H 3.971238 2.429952 3.729997
  H 2.999480 -0.755342 -1.830165
  H 5.251477 -0.244005 -0.557326
  H 5.520943 -0.301701 -0.700427
 23
 0.000000
  C 1.192786 0.137894 0.394472
  C 2.665915 0.183626 0.507886
  C 3.343947 0.676262 1.733874
  C 2.459925 1.140207 2.888861
  C 3.306355 1.613326 4.066293
  C 3.677128 -0.439426 -1.043529
  C 4.556565 -0.560460 -1.345352
  C 4.951760 -0.942286 -2.297066
  H 4.643086 -1.323794 -3.247916
  O 5.739340 -0.869847 -2.116827
  H 0.675226 0.493021 1.278508
  H 0.867586 -0.885572 0.201319
  H 0.867307 0.743143 -0.453047
  H 3.998356 1.508770 1.450908
  H 3.998543 -0.120461 2.105482
  H 1.818914 0.323237 3.226376
  H 1.818773 1.963527 2.567401
  H 3.940719 0.811451 4.438970
  H 2.665137 1.940819 4.881659
  H 3.940544 2.450251 3.780554
  H 3.092724 -0.776492 -1.882839
  H 5.312187 -0.270613 -0.623613
  H 5.395558 -0.308732 -0.717878
 23
 0.000000
  C 1.193567 0.152201 0.430085
  C 2.665450 0.203214 0.556655
  C 3.330731 0.698257 1.788645
  C 2.434767 1.159009 2.935680
  C 3.268941 1.635140 4.120621
  C 3.766842 -0.460886 -1.096969
  C 4.606887 -0.581969 -1.398897
  C 4.982506 -0.979837 -2.390571
  H 4.652684 -1.358897 -3.335288
  O 5.730819 -0.914426 -2.227841
  H 0.666859 0.505455 1.309456
  H 0.873778 -0.872421 0.234049
  H 0.873505 0.756294 -0.420318
  H 3.984652 1.533111 1.511524
  H 3.984833 -0.096120 2.166098
  H 1.793700 0.339740 3.267467
  H 1.793564 1.980030 2.608493
  H 3.902822 0.835539 4.498963
  H 2.619294 1.960318 4.930220
  H 3.902653 2.474339 3.840546
  H 3.191173 -0.800034 -1.941462
  H 5.379862 -0.298535 -0.693162
  H 5.293783 -0.324146 -0.756219
 23
 0.000000
  C 1.189326 0.161012 0.452017
  C 2.660584 0.214477 0.584699
  C 3.319917 0.710624 1.819440
  C 2.418430 1.169877 2.962743
  C 3.246882 1.647393 4.151136
  C 3.803425 -0.467773 -1.114117
  C 4.628950 -0.588294 -1.414637
  C 4.998685 -0.994488 -2.427052
  H 4.659650 -1.372424 -3.368958
  O 5.734548 -0.932148 -2.271972
  H 0.658383 0.513384 1.329193
  H 0.872062 -0.864142 0.254658
  H 0.871792 0.764573 -0.399709
  H 3.973591 1.546567 1.545035
  H 3.973769 -0.082664 2.199609
  H 1.777357 0.349539 3.291867
  H 1.777224 1.989830 2.632893
  H 3.880517 0.848848 4.532110
  H 2.593337 1.971485 4.958029
  H 3.880351 2.487648 3.873693
  H 3.231835 -0.807877 -1.960991
  H 5.407827 -0.307109 -0.714514
  H 5.262084 -0.329502 -0.769536
 23
 0.000000
  C 1.171841 0.197652 0.543225
  C 2.640350 0.260753 0.699925
  C 3.276152 0.761143 1.945245
  C 2.353115 1.214413 3.073640
  C 3.158890 1.697284 4.275383
  C 3.994580 -0.516826 -1.236253
  C 4.745117 -0.633763 -1.527809
  C 5.077541 -1.089700 -2.664152
  H 4.682292 -1.459998 -3.586973
  O 5.761812 -1.045045 -2.553134
  H 0.624339 0.546486 1.411588
  H 0.864573 -0.829549 0.340763
  H 0.864316 0.799165 -0.313606
  H 3.928727 1.601370 1.681513
  H 3.928891 -0.027861 2.336087
  H 1.712144 0.389871 3.392289
  H 1.712024 2.030162 2.733315
  H 3.791436 0.902888 4.666700
  H 2.490139 2.017038 5.071472
  H 3.791284 2.541689 4.008284
  H 3.439146 -0.860626 -2.092333
  H 5.555075 -0.365041 -0.858772
  H 5.130130 -0.382823 -0.902271
