 22
 0.000000
  C 0.983679 0.159677 0.447927
  C 2.454497 0.135573 0.388363
  C 3.236711 0.600457 1.545612
  H 2.603799 0.928362 2.362266
  C 3.050117 -0.333704 -0.779853
  C 4.433717 -0.416808 -0.987509
  C 5.092214 -0.865778 -2.107222
  C 4.625050 -1.384133 -3.399397
  C 3.144768 -1.512309 -3.718350
  H 3.031973 -1.914536 -4.721248
  H 6.174276 -0.847349 -2.061974
  H 0.612230 0.539864 1.393920
  H 0.583722 -0.842764 0.286177
  H 0.583819 0.771601 -0.362453
  H 3.892674 1.422438 1.254758
  H 3.892792 -0.194236 1.904162
  H 2.386907 -0.650088 -1.567524
  H 5.067042 -0.089995 -0.173439
  H 5.103340 -2.365590 -3.523379
  H 5.103193 -0.760363 -4.167320
  H 2.650290 -0.544448 -3.691825
  H 2.650608 -2.193813 -3.030343
 22
 0.233650
  C 0.989766 0.317583 0.391524
  C 2.454202 0.168107 0.358900
  C 3.230217 0.337086 1.596880
  H 2.591635 0.542585 2.447416
  C 3.051569 -0.165585 -0.852174
  C 4.435613 -0.231510 -1.062733
  C 5.090702 -0.680002 -2.183515
  C 4.622738 -1.389798 -3.379603
  C 3.148500 -1.677864 -3.603487
  H 3.037973 -2.268572 -4.510437
  H 6.162859 -0.526442 -2.204297
  H 0.629451 0.671788 1.350690
  H 0.514733 -0.642092 0.172803
  H 0.655345 0.990009 -0.397769
  H 3.942974 1.156293 1.489237
  H 3.824116 -0.551998 1.804238
  H 2.394893 -0.334105 -1.689975
  H 5.067980 0.135251 -0.264987
  H 5.175904 -2.338943 -3.391419
  H 5.029926 -0.856092 -4.248375
  H 2.582821 -0.761044 -3.744065
  H 2.726966 -2.250133 -2.781379
 22
 3.622890
  C 1.021126 0.477335 0.309212
  C 2.458664 0.169977 0.309144
  C 3.186942 0.050775 1.583360
  H 2.535939 0.191454 2.440111
  C 3.098585 -0.056698 -0.900599
  C 4.481604 0.022465 -1.134715
  C 5.103028 -0.490463 -2.235466
  C 4.598015 -1.407253 -3.279810
  C 3.129016 -1.773123 -3.429917
  H 3.039292 -2.465047 -4.267522
  H 6.146155 -0.307405 -2.457411
  H 0.682762 0.839447 1.275223
  H 0.451618 -0.423405 0.065707
  H 0.777400 1.201621 -0.466110
  H 3.994130 0.785813 1.624468
  H 3.673598 -0.922075 1.656321
  H 2.484272 -0.269497 -1.769771
  H 5.087691 0.571753 -0.427312
  H 5.170200 -2.336690 -3.133697
  H 4.967336 -1.026035 -4.238750
  H 2.520353 -0.909696 -3.686648
  H 2.742147 -2.284894 -2.553790
 22
 10.922660
  C 1.062316 0.568491 0.285965
  C 2.483395 0.182796 0.277441
  C 3.172489 -0.122605 1.544607
  H 2.495981 -0.097179 2.391937
  C 3.150029 0.033207 -0.925006
  C 4.510182 0.250376 -1.215396
  C 5.117315 -0.362397 -2.264297
  C 4.585687 -1.433143 -3.159722
  C 3.105427 -1.755409 -3.345562
  H 3.047311 -2.528904 -4.119243
  H 6.137898 -0.260632 -2.593148
  H 0.743129 0.881963 1.280356
  H 0.445860 -0.284805 -0.000850
  H 0.862632 1.352516 -0.434731
  H 3.977189 0.598450 1.707176
  H 3.655175 -1.093884 1.495289
  H 2.576447 -0.306428 -1.793133
  H 5.065152 0.962572 -0.621336
  H 5.079391 -2.350023 -2.803824
  H 5.023948 -1.251686 -4.151273
  H 2.549386 -0.918756 -3.763724
  H 2.651190 -2.198955 -2.469949
 22
 27.312967
  C 1.129563 0.705860 0.207634
  C 2.495423 0.149516 0.244086
  C 3.038673 -0.353055 1.524821
  H 2.300847 -0.307667 2.315781
  C 3.256512 0.100865 -0.905964
  C 4.568552 0.393252 -1.314260
  C 5.143069 -0.289139 -2.349658
  C 4.573953 -1.452872 -3.124414
  C 3.091203 -1.823183 -3.088051
  H 3.005112 -2.590807 -3.886182
  H 6.125363 -0.160145 -2.749649
  H 0.812144 1.003163 1.210445
  H 0.414981 -0.033400 -0.160628
  H 1.079942 1.568190 -0.452235
  H 3.906930 0.243156 1.820041
  H 3.383561 -1.373170 1.416649
  H 2.751242 -0.389760 -1.777640
  H 5.066681 1.243992 -0.880208
  H 5.158968 -2.329971 -2.864175
  H 4.811812 -1.208980 -4.165237
  H 2.428473 -1.094638 -3.546225
  H 2.784977 -2.378945 -2.231054
 22
 56.541822
  C 1.214830 0.668744 0.044091
  C 2.613371 0.144196 0.203492
  C 2.973348 -0.475325 1.521551
  H 2.106909 -0.500674 2.187905
  C 3.480038 0.173724 -0.798029
  C 4.695410 0.448353 -1.408977
  C 5.185293 -0.259632 -2.467815
  C 4.525490 -1.468873 -3.058597
  C 2.995267 -1.609084 -2.840258
  H 2.690444 -2.480727 -3.474414
  H 6.145199 -0.043984 -2.906842
  H 0.776706 0.867662 1.020619
  H 0.577553 -0.059272 -0.465070
  H 1.211307 1.599255 -0.534983
  H 3.757410 0.102746 1.994896
  H 3.354789 -1.499255 1.388948
  H 2.842233 -0.500176 -2.023513
  H 5.261345 1.296066 -1.040720
  H 5.033308 -2.360216 -2.672643
  H 4.747639 -1.447396 -4.129415
  H 2.392162 -0.928623 -3.474024
  H 2.709034 -2.065164 -1.876745
 22
 62.019257
  C 1.288859 0.856971 0.031612
  C 2.649887 0.235374 0.231021
  C 2.870426 -0.535157 1.516559
  H 1.955757 -0.582657 2.097734
  C 3.572257 0.291770 -0.682604
  C 4.687376 0.467520 -1.423482
  C 5.146746 -0.283866 -2.486906
  C 4.549457 -1.542672 -3.022212
  C 3.029970 -1.705363 -2.776016
  H 2.713596 -2.604004 -3.346033
  H 6.083112 -0.009331 -2.942061
  H 0.794465 0.988400 0.988605
  H 0.654534 0.225231 -0.585347
  H 1.375664 1.827899 -0.446128
  H 3.635914 -0.044026 2.116325
  H 3.210626 -1.547482 1.318768
  H 2.774959 -0.633168 -2.413483
  H 5.287492 1.332521 -1.153640
  H 5.078394 -2.391133 -2.572343
  H 4.766890 -1.587355 -4.090763
  H 2.324668 -1.125859 -3.472338
  H 2.793443 -2.055033 -1.759630
 22
 67.207955
  C 1.328389 0.974363 0.026876
  C 2.650709 0.268710 0.227378
  C 2.803766 -0.562519 1.484477
  H 1.876714 -0.577543 2.049508
  C 3.597715 0.321834 -0.658327
  C 4.694943 0.482630 -1.426466
  C 5.126035 -0.277741 -2.497369
  C 4.556801 -1.573395 -2.974359
  C 3.005599 -1.795872 -2.757936
  H 2.854617 -2.744830 -3.282962
  H 6.047844 0.001996 -2.982436
  H 0.800358 1.058533 0.972205
  H 0.691757 0.425432 -0.664303
  H 1.483195 1.974582 -0.371750
  H 3.585411 -0.142145 2.115357
  H 3.086225 -1.586773 1.251357
  H 2.937950 -0.644422 -2.795632
  H 5.317823 1.334892 -1.167994
  H 5.044018 -2.384566 -2.421712
  H 4.805460 -1.707357 -4.026512
  H 2.125922 -1.323454 -3.339037
  H 2.777776 -1.969987 -1.702393
 22
 67.909487
  C 1.369649 0.860429 -0.103510
  C 2.721003 0.249927 0.200119
  C 2.853063 -0.539477 1.484052
  H 1.897655 -0.596387 1.996681
  C 3.712367 0.351853 -0.627587
  C 4.812122 0.546070 -1.377225
  C 5.223554 -0.239726 -2.443106
  C 4.533971 -1.477031 -2.882869
  C 2.652326 -1.763313 -2.768397
  H 2.718624 -2.752812 -3.196600
  H 6.131950 0.019479 -2.958731
  H 0.764162 0.900126 0.795783
  H 0.835467 0.270528 -0.845303
  H 1.482284 1.870474 -0.489863
  H 3.571960 -0.056610 2.144338
  H 3.207701 -1.549234 1.293281
  H 3.428583 -0.900322 -2.911091
  H 5.418783 1.412128 -1.136805
  H 4.761980 -2.313164 -2.222094
  H 4.798446 -1.725180 -3.909751
  H 1.871645 -1.235724 -3.331850
  H 2.400085 -1.810723 -1.716463
 22
 72.142131
  C 1.308104 0.864361 0.004711
  C 2.663827 0.234539 0.237921
  C 2.857525 -0.561455 1.509617
  H 1.958827 -0.536632 2.116078
  C 3.606707 0.310817 -0.648772
  C 4.693971 0.506270 -1.417775
  C 5.122192 -0.273737 -2.481914
  C 4.502550 -1.608605 -2.850607
  C 2.827318 -1.698753 -2.893923
  H 2.692355 -2.744452 -3.159561
  H 6.061062 -0.022603 -2.943830
  H 0.682967 0.758404 0.885592
  H 0.796750 0.397853 -0.833869
  H 1.415693 1.925114 -0.215723
  H 3.678883 -0.145399 2.088492
  H 3.098911 -1.600572 1.290239
  H 3.553680 -0.740638 -3.070786
  H 5.285570 1.386254 -1.190861
  H 4.787362 -2.353892 -2.105901
  H 4.883709 -1.922886 -3.822618
  H 2.230193 -1.165770 -3.654298
  H 2.405367 -1.531234 -1.905656
 22
 56.370421
  C 1.383991 1.085158 0.063720
  C 2.641338 0.269333 0.262919
  C 2.688595 -0.683878 1.435734
  H 1.751377 -0.660994 1.982651
  C 3.633099 0.373040 -0.559655
  C 4.627659 0.587712 -1.422829
  C 4.935849 -0.182115 -2.586811
  C 4.428023 -1.664118 -2.923187
  C 2.924377 -2.005088 -2.756781
  H 2.816822 -3.051413 -3.038481
  H 5.790449 0.115565 -3.164920
  H 0.756522 1.030763 0.948665
  H 0.817877 0.706410 -0.786038
  H 1.628241 2.128125 -0.128544
  H 3.495142 -0.400535 2.111251
  H 2.875032 -1.705858 1.103740
  H 3.820077 -0.320049 -2.962397
  H 5.285262 1.424736 -1.212839
  H 4.963328 -2.348346 -2.260694
  H 4.721414 -1.873179 -3.948322
  H 2.248570 -1.459998 -3.412335
  H 2.609078 -1.908099 -1.728133
 22
 24.322145
  C 1.545848 1.338532 0.259305
  C 2.552351 0.247866 0.253374
  C 2.445505 -0.845667 1.243616
  H 1.576905 -0.713491 1.881216
  C 3.515653 0.265289 -0.672076
  C 4.436881 0.500676 -1.538003
  C 4.689378 -0.154787 -2.850613
  C 4.553817 -1.682238 -2.905495
  C 3.164039 -2.158989 -2.540086
  H 3.146517 -3.249418 -2.549011
  H 5.489646 0.238962 -3.449773
  H 0.944092 1.310316 1.166590
  H 0.894662 1.214922 -0.599617
  H 2.012168 2.318186 0.167029
  H 3.348431 -0.853796 1.862090
  H 2.386598 -1.816764 0.770031
  H 3.684695 0.036065 -3.278884
  H 5.122073 1.318320 -1.316497
  H 5.255325 -2.132580 -2.199107
  H 4.849097 -2.027735 -3.894450
  H 2.413002 -1.825301 -3.242353
  H 2.905278 -1.834579 -1.532579
 22
 15.607456
  C 1.513613 1.279054 0.290964
  C 2.519096 0.193032 0.232274
  C 2.480728 -0.915291 1.213924
  H 1.625925 -0.832748 1.872589
  C 3.454943 0.239392 -0.734440
  C 4.417948 0.480046 -1.552624
  C 4.640278 -0.122847 -2.919065
  C 4.557928 -1.644386 -2.889063
  C 3.157720 -2.111911 -2.536729
  H 3.115264 -3.191290 -2.432339
  H 5.582533 0.217445 -3.349500
  H 0.948882 1.250682 1.215352
  H 0.822672 1.165490 -0.545173
  H 1.972614 2.256513 0.162733
  H 3.392198 -0.890493 1.810911
  H 2.473943 -1.893263 0.730988
  H 3.794544 0.253660 -3.512664
  H 5.162260 1.214653 -1.270268
  H 5.280113 -2.042005 -2.168666
  H 4.846116 -2.028770 -3.872658
  H 2.439405 -1.805268 -3.289104
  H 2.863887 -1.662173 -1.587092
 22
 15.219103
  C 1.358782 0.971800 0.114637
  C 2.594934 0.174101 0.259053
  C 2.790760 -0.722152 1.416858
  H 1.918393 -0.732618 2.060820
  C 3.550014 0.257434 -0.692241
  C 4.564679 0.377100 -1.468013
  C 4.704810 -0.135857 -2.882445
  C 4.392745 -1.632275 -2.930879
  C 2.933840 -1.921758 -2.632771
  H 2.738920 -2.994585 -2.631543
  H 5.702104 0.073669 -3.259490
  H 0.733505 0.905833 0.997633
  H 0.784506 0.623779 -0.746843
  H 1.600006 2.015379 -0.099082
  H 3.657713 -0.395753 1.996020
  H 3.025650 -1.739363 1.094680
  H 3.956689 0.392876 -3.485205
  H 5.430010 0.933808 -1.116997
  H 5.042617 -2.177378 -2.245472
  H 4.626555 -1.977977 -3.940245
  H 2.283879 -1.446121 -3.367852
  H 2.672015 -1.532913 -1.645085
 22
 15.950259
  C -27.307109 25.505224 21.647845
  C -7.357487 10.505543 24.457487
  C -5.315092 2.408762 36.084615
  H -18.716767 8.077574 49.835897
  C 6.058879 8.598209 11.291345
  C 27.474733 7.650219 -3.866416
  C 28.670366 5.033003 -22.823431
  C 13.035675 -27.679575 -31.809385
  C -10.886804 -33.605801 -23.880350
  H -15.851463 -50.730050 -30.013092
  H 122.323204 58.656333 -30.087325
  H -35.265440 26.156331 33.559771
  H -53.453477 11.733504 -2.161508
  H -18.312551 52.828392 12.893683
  H 38.884147 6.430234 60.598697
  H -11.527624 -26.176225 28.756258
  H -8.623678 7.499633 -46.231684
  H 42.392306 23.401599 2.679649
  H 29.686633 -49.249173 -26.800818
  H 10.256905 -23.615033 -56.209898
  H -27.926003 -13.852253 -29.389742
  H -7.081738 -40.403808 -3.822455
