20
 0
 C -1.78752121 -0.82121242 0.83881151
 C -1.07844461 0.19015872 -0.06052414
 C -1.54514239 0.03082120 -1.50404022
 C -1.31283981 1.61903277 0.42651378
 O -2.09090295 1.88470794 1.34433829
 C -0.54477234 2.72445883 -0.25362088
 H -1.57672469 -1.84605102 0.51582712
 H -2.87374266 -0.67680519 0.82256868
 H -1.45554645 -0.72063997 1.87788167
 H 0.00000000 0.00000000 0.00000000
 H -2.60607435 0.28322864 -1.60778850
 H -1.40191922 -0.99868715 -1.84901432
 H -0.98508515 0.68551048 -2.17940526
 H 0.19808546 2.31811603 -0.94410329
 H -0.01959246 3.31419048 0.50220124
 H -1.24162794 3.35687358 -0.80922910
 O 2.97448175 0.17182727 0.05419364
 H 3.16860763 1.14219312 0.10707899
 H 2.00000000 0.00000000 0.00000000
 H 3.38777450 -0.32165329 0.80766988
