 20
 0.000000
  C -1.781421 -0.818174 0.843129
  C -1.075587 0.194476 -0.053899
  C -1.539613 0.047310 -1.503585
  C -1.317196 1.613593 0.429643
  O -2.090955 1.866004 1.331753
  C -0.550505 2.708797 -0.262106
  H -1.571742 -1.833869 0.517165
  H -2.858215 -0.670371 0.823823
  H -1.454300 -0.716614 1.875935
  H 0.001657 0.005604 0.004167
  H -2.594247 0.294312 -1.598114
  H -1.396965 -0.973769 -1.845785
  H -0.986470 0.703824 -2.170891
  H 0.185073 2.309239 -0.952884
  H -0.044541 3.314628 0.484433
  H -1.249752 3.332241 -0.810416
  O 2.973302 0.165393 0.057269
  H 3.170891 1.123132 0.115321
  H 2.009481 0.000660 0.003910
  H 3.380116 -0.330345 0.800491
 20
 0.590685
  C -1.686265 -0.826693 0.859129
  C -1.004683 0.203228 -0.042613
  C -1.473507 0.060716 -1.499308
  C -1.282998 1.627238 0.432223
  O -2.083772 1.868724 1.312254
  C -0.528790 2.717625 -0.270297
  H -1.467311 -1.834121 0.524614
  H -2.759462 -0.686515 0.841983
  H -1.361445 -0.712623 1.889953
  H 0.078804 0.032455 0.000235
  H -2.533568 0.280024 -1.570385
  H -1.321652 -0.958114 -1.835015
  H -0.942860 0.732348 -2.167757
  H 0.220760 2.339688 -0.958514
  H -0.088155 3.382766 0.468705
  H -1.248211 3.316639 -0.824302
  O 2.758662 0.130842 0.040770
  H 3.000834 1.077094 0.146658
  H 1.781199 0.012242 -0.004439
  H 3.151026 -0.422783 0.746499
 20
 2.582344
  C -1.615612 -0.827519 0.862924
  C -0.949579 0.210216 -0.039464
  C -1.430749 0.061101 -1.493062
  C -1.247146 1.627445 0.433098
  O -2.048337 1.863655 1.313502
  C -0.495807 2.713344 -0.271916
  H -1.386375 -1.829425 0.523322
  H -2.690774 -0.699454 0.845983
  H -1.295824 -0.714854 1.896524
  H 0.129407 0.060271 -0.005911
  H -2.490145 0.264226 -1.548577
  H -1.270062 -0.954586 -1.831986
  H -0.922511 0.738967 -2.167059
  H 0.252913 2.334330 -0.958347
  H -0.063912 3.383790 0.459244
  H -1.211740 3.305936 -0.827444
  O 2.563274 0.141672 0.031319
  H 2.838046 1.058209 0.163739
  H 1.578500 0.055178 -0.008170
  H 2.963831 -0.445994 0.717144
 20
 2.582752
  C -1.578332 -0.825656 0.873194
  C -0.942492 0.220478 -0.045674
  C -1.437491 0.065440 -1.492418
  C -1.243396 1.638632 0.427847
  O -2.038697 1.864859 1.313838
  C -0.517281 2.739657 -0.288347
  H -1.345937 -1.829317 0.532597
  H -2.659223 -0.710601 0.879610
  H -1.236413 -0.701983 1.897748
  H 0.148626 0.075957 -0.040145
  H -2.503808 0.265609 -1.543931
  H -1.275167 -0.953819 -1.829784
  H -0.935581 0.746565 -2.170235
  H 0.230734 2.376019 -0.980999
  H -0.084485 3.417870 0.441177
  H -1.252737 3.322523 -0.838604
  O 2.552790 0.110316 0.044954
  H 2.844446 1.018960 0.248174
  H 1.560906 0.041221 -0.024990
  H 2.916529 -0.531797 0.695396
 20
 4.527563
  C -1.521199 -0.847544 0.854686
  C -0.929044 0.221018 -0.058418
  C -1.430075 0.078729 -1.501101
  C -1.231912 1.629377 0.437994
  O -2.038739 1.834626 1.321033
  C -0.503325 2.746612 -0.255604
  H -1.273849 -1.843114 0.497128
  H -2.605172 -0.755616 0.880211
  H -1.166120 -0.727659 1.876602
  H 0.167278 0.089453 -0.074089
  H -2.501399 0.268927 -1.544218
  H -1.260364 -0.935253 -1.853174
  H -0.937777 0.776355 -2.173897
  H 0.257253 2.398826 -0.944319
  H -0.082000 3.419187 0.489820
  H -1.237238 3.334291 -0.808302
  O 2.461214 0.128010 0.039806
  H 2.752942 1.028777 0.308040
  H 1.455254 0.064934 -0.045262
  H 2.815783 -0.550114 0.652707
 20
 4.797896
  C -1.504104 -0.824990 0.861553
  C -0.928450 0.233772 -0.061954
  C -1.434319 0.072765 -1.491273
  C -1.242468 1.637005 0.415027
  O -2.052548 1.848532 1.284844
  C -0.511972 2.743469 -0.279311
  H -1.248339 -1.820064 0.512545
  H -2.587937 -0.744828 0.895663
  H -1.143721 -0.690484 1.874258
  H 0.155158 0.095576 -0.071998
  H -2.504797 0.256117 -1.532356
  H -1.255758 -0.942008 -1.834812
  H -0.953565 0.767583 -2.165300
  H 0.255124 2.390585 -0.956765
  H -0.098388 3.420700 0.461020
  H -1.238025 3.321913 -0.841568
  O 2.446321 0.128904 0.047706
  H 2.739126 0.998592 0.382044
  H 1.472109 0.071132 -0.026548
  H 2.793427 -0.596231 0.614804
 20
 8.215776
  C -1.489431 -0.840770 0.861219
  C -0.931137 0.238878 -0.066291
  C -1.431660 0.079679 -1.504139
  C -1.240236 1.644443 0.420687
  O -2.040770 1.847078 1.304113
  C -0.499985 2.755735 -0.263150
  H -1.235684 -1.831261 0.496588
  H -2.573622 -0.764525 0.917922
  H -1.107416 -0.717730 1.871386
  H 0.162990 0.068809 -0.051708
  H -2.501701 0.269785 -1.554668
  H -1.247782 -0.931991 -1.852361
  H -0.948484 0.790709 -2.167641
  H 0.258051 2.405218 -0.953221
  H -0.067848 3.414665 0.486944
  H -1.225537 3.356194 -0.810251
  O 2.416197 0.122859 0.024217
  H 2.711935 1.000109 0.340491
  H 1.379890 0.052210 -0.028214
  H 2.752048 -0.585293 0.612296
 20
 8.766081
  C -1.535062 -0.851471 0.871034
  C -0.944754 0.225138 -0.057478
  C -1.409173 0.058871 -1.512398
  C -1.218892 1.636752 0.439705
  O -2.025409 1.873102 1.327341
  C -0.455899 2.738148 -0.257057
  H -1.286917 -1.847721 0.505080
  H -2.627001 -0.770125 0.915014
  H -1.165371 -0.717367 1.888053
  H 0.168065 0.037335 -0.039892
  H -2.489436 0.249840 -1.588529
  H -1.227492 -0.950968 -1.844095
  H -0.907850 0.754232 -2.171748
  H 0.278441 2.371310 -0.937375
  H -0.002256 3.376560 0.481265
  H -1.170185 3.348654 -0.815183
  O 2.365904 0.191844 0.008904
  H 2.602252 1.081761 0.335167
  H 1.381115 0.067544 -0.029525
  H 2.793400 -0.498815 0.567919
 20
 9.526761
  C -1.526193 -0.846662 0.869048
  C -0.951046 0.217148 -0.055178
  C -1.417927 0.055886 -1.504000
  C -1.204700 1.645238 0.435963
  O -2.007598 1.877531 1.323524
  C -0.457636 2.748436 -0.261557
  H -1.276942 -1.842417 0.511889
  H -2.601811 -0.774286 0.915346
  H -1.156645 -0.711251 1.880186
  H 0.175457 0.058555 -0.070433
  H -2.487963 0.233199 -1.573933
  H -1.228832 -0.957924 -1.833588
  H -0.908278 0.754435 -2.171569
  H 0.301350 2.389664 -0.947815
  H -0.038363 3.423164 0.479959
  H -1.189566 3.343774 -0.819931
  O 2.354773 0.174736 0.025847
  H 2.636716 1.043162 0.384423
  H 1.361141 0.070145 -0.052664
  H 2.734802 -0.534687 0.557609
 20
 19.043885
  C -1.428927 -1.181811 0.277507
  C -0.992111 0.202080 -0.195505
  C -1.323702 0.492072 -1.673742
  C -1.355560 1.346150 0.737459
  O -2.210280 1.214041 1.611470
  C -0.674759 2.660845 0.463454
  H -1.057710 -1.960440 -0.395064
  H -2.538337 -1.233243 0.273318
  H -1.117150 -1.374418 1.305223
  H 0.167607 0.163576 -0.141632
  H -2.413971 0.592156 -1.787446
  H -1.009053 -0.343567 -2.297817
  H -0.874379 1.414128 -2.032225
  H 0.103549 2.587315 -0.284481
  H -0.283733 3.071191 1.391251
  H -1.436740 3.360509 0.108307
  O 2.514111 0.420560 0.002859
  H 2.785961 1.085013 0.683974
  H 1.287323 0.283825 -0.149013
  H 2.970537 -0.439938 0.209526
 20
 27.129699
  C -1.546534 -0.839301 0.872167
  C -1.046624 0.229698 -0.067422
  C -1.451717 0.043582 -1.514753
  C -1.248312 1.653946 0.432933
  O -2.045422 1.884751 1.318270
  C -0.472686 2.723262 -0.264661
  H -1.289827 -1.831649 0.518575
  H -2.633580 -0.778218 0.916980
  H -1.184501 -0.687570 1.882138
  H 0.131052 0.111018 -0.068175
  H -2.524087 0.214352 -1.603458
  H -1.258551 -0.973944 -1.839155
  H -0.958686 0.744481 -2.176302
  H 0.282077 2.345055 -0.940315
  H -0.027834 3.383450 0.475456
  H -1.182185 3.338011 -0.816517
  O 2.566725 0.200732 0.056636
  H 2.875965 1.025134 0.445094
  H 1.192484 0.096664 -0.064628
  H 2.945972 -0.529685 0.563760
 20
 37.602128
  C -1.617837 -0.826001 0.889046
  C -1.118586 0.234036 -0.050576
  C -1.450795 0.029621 -1.505525
  C -1.298656 1.669993 0.434252
  O -2.118733 1.906016 1.294467
  C -0.522795 2.726924 -0.281818
  H -1.344593 -1.821430 0.556112
  H -2.706517 -0.771963 0.907678
  H -1.281421 -0.659844 1.908478
  H 0.116659 0.106760 0.010035
  H -2.517305 0.214288 -1.640340
  H -1.260095 -0.995197 -1.807678
  H -0.923712 0.717707 -2.158047
  H 0.256142 2.335446 -0.924800
  H -0.104728 3.421516 0.444279
  H -1.226962 3.311766 -0.873332
  O 2.770200 0.162095 0.048255
  H 3.187957 1.117928 0.320979
  H 1.121746 0.062583 -0.057535
  H 3.204093 -0.608878 0.643919
 20
 42.649500
  C -1.603593 -0.875592 0.842123
  C -1.144727 0.222656 -0.072819
  C -1.480776 0.079786 -1.534835
  C -1.283673 1.640407 0.488548
  O -2.084097 1.850878 1.369459
  C -0.507682 2.714707 -0.201821
  H -1.344086 -1.856749 0.459169
  H -2.694937 -0.824752 0.908083
  H -1.227818 -0.742524 1.856666
  H 0.083865 0.098443 -0.048245
  H -2.548969 0.288074 -1.660954
  H -1.306802 -0.939126 -1.878475
  H -0.947500 0.792199 -2.160486
  H 0.278086 2.338749 -0.840644
  H -0.101278 3.401930 0.539303
  H -1.208188 3.298480 -0.795711
  O 2.817619 0.187191 0.117997
  H 3.222539 1.050551 0.216918
  H 1.070130 -0.008187 -0.090262
  H 3.282125 -0.431847 0.687989
 20
 48.678814
  C -1.689530 -0.838276 0.846998
  C -1.266110 0.228951 -0.092205
  C -1.550619 0.053384 -1.536060
  C -1.323730 1.660314 0.440350
  O -2.069826 1.900359 1.365344
  C -0.513877 2.692503 -0.258932
  H -1.479971 -1.832587 0.465675
  H -2.777467 -0.752348 0.958329
  H -1.279718 -0.702805 1.844109
  H 0.104590 0.065489 -0.045436
  H -2.612098 0.272912 -1.687448
  H -1.388200 -0.969155 -1.858067
  H -1.007921 0.748255 -2.166527
  H 0.208334 2.285309 -0.953807
  H -0.014595 3.312085 0.482456
  H -1.199684 3.357988 -0.787348
  O 3.079725 0.198184 0.194468
  H 3.489470 1.059762 0.306609
  H 1.017037 -0.053715 -0.102727
  H 3.544429 -0.401335 0.786222
