 7
 0.000000
  H 3.364210 -0.405450 -0.961526
  C 4.444434 -0.397407 -0.938115
  C 5.177416 -0.841405 -2.044592
  H 4.668528 -1.199836 -2.939226
  O 6.441802 -0.871061 -2.118712
  H 4.949428 -0.042254 -0.051436
  H 6.969867 -0.557925 -1.340982
 7
 4.614993
  H 3.325051 -0.377144 -0.893010
  C 4.396786 -0.407206 -0.963070
  C 5.156050 -0.837070 -2.033973
  H 4.691877 -1.205562 -2.951971
  O 6.423261 -0.849347 -2.064855
  H 5.097431 -0.112834 -0.225047
  H 6.917139 -0.528137 -1.267983
 7
 14.512513
  H 3.296149 -0.355129 -0.837206
  C 4.355889 -0.409520 -0.969463
  C 5.138818 -0.832664 -2.023432
  H 4.724633 -1.209133 -2.960776
  O 6.407753 -0.833515 -2.025381
  H 5.196085 -0.172217 -0.374344
  H 6.892045 -0.510075 -1.221939
 7
 27.262352
  H 3.271317 -0.339749 -0.799140
  C 4.322426 -0.408380 -0.966880
  C 5.132925 -0.827462 -2.010420
  H 4.750607 -1.210926 -2.964867
  O 6.402961 -0.822836 -1.999178
  H 5.256067 -0.222230 -0.498715
  H 6.889750 -0.499123 -1.194581
 7
 41.368829
  H 3.250084 -0.329433 -0.773955
  C 4.295142 -0.405747 -0.960389
  C 5.132889 -0.822710 -1.998115
  H 4.774737 -1.210157 -2.963026
  O 6.405411 -0.816533 -1.983262
  H 5.289296 -0.264364 -0.602962
  H 6.900888 -0.493852 -1.182272
 7
 54.804601
  H 3.231091 -0.325818 -0.769136
  C 4.275280 -0.402504 -0.951980
  C 5.137412 -0.818562 -1.985219
  H 4.787708 -1.206969 -2.955658
  O 6.413921 -0.813798 -1.975713
  H 5.309432 -0.299082 -0.682844
  H 6.921517 -0.491616 -1.182371
 7
 61.459402
  H 3.168023 -0.362584 -0.868374
  C 4.217249 -0.423937 -1.005410
  C 5.154249 -0.771401 -1.865475
  H 4.763851 -1.163428 -2.854172
  O 6.467022 -0.831629 -2.015138
  H 5.276808 -0.292695 -0.641883
  H 7.060072 -0.531476 -1.300202
 7
 65.667411
  H 3.155562 -0.354182 -0.867327
  C 4.201125 -0.426751 -1.017065
  C 5.173757 -0.771172 -1.856290
  H 4.771959 -1.160984 -2.845648
  O 6.479808 -0.838589 -2.024134
  H 5.273226 -0.319081 -0.675658
  H 7.079583 -0.527225 -1.319166
 7
 69.793311
  H 3.152362 -0.348081 -0.865439
  C 4.195489 -0.428448 -1.025104
  C 5.180252 -0.774108 -1.858514
  H 4.776842 -1.162349 -2.845273
  O 6.488513 -0.840216 -2.028287
  H 5.282326 -0.342235 -0.716155
  H 7.085346 -0.522930 -1.323666
 7
 73.183342
  H 3.153200 -0.330009 -0.848489
  C 4.188006 -0.430732 -1.043272
  C 5.182584 -0.781963 -1.867960
  H 4.787036 -1.170330 -2.857272
  O 6.497276 -0.841571 -2.029127
  H 5.293393 -0.376939 -0.751533
  H 7.085702 -0.507942 -1.324818
 7
 76.222632
  H 3.158300 -0.301750 -0.818310
  C 4.176918 -0.432341 -1.069614
  C 5.182066 -0.795542 -1.879587
  H 4.808888 -1.181558 -2.876991
  O 6.505295 -0.842625 -2.029299
  H 5.300779 -0.420570 -0.781581
  H 7.082688 -0.485682 -1.327142
 7
 78.948774
  H 3.166054 -0.277711 -0.794386
  C 4.167575 -0.428861 -1.096441
  C 5.184390 -0.807238 -1.889265
  H 4.826170 -1.192182 -2.890698
  O 6.514132 -0.843435 -2.030671
  H 5.305956 -0.463766 -0.805025
  H 7.083289 -0.465102 -1.332820
 7
 81.108021
  H 3.173738 -0.250764 -0.795025
  C 4.166807 -0.420725 -1.113750
  C 5.193996 -0.823729 -1.891381
  H 4.829778 -1.199805 -2.892189
  O 6.524868 -0.842619 -2.035881
  H 5.308859 -0.523685 -0.814964
  H 7.086811 -0.434948 -1.348049
 7
 82.632024
  H 3.179323 -0.226816 -0.809865
  C 4.171314 -0.406519 -1.126349
  C 5.207244 -0.834923 -1.892950
  H 4.822287 -1.212748 -2.882545
  O 6.535488 -0.837712 -2.044475
  H 5.310838 -0.588319 -0.820505
  H 7.092415 -0.408030 -1.365564
