 26
 0.000000
  H 1.426973 0.158713 0.448857
  C 2.505700 0.145445 0.414379
  C 3.255341 0.617218 1.586026
  C 2.392625 1.085193 2.750915
  H 3.017036 1.416123 3.572892
  C 3.078678 -0.323286 -0.752159
  C 4.454729 -0.412811 -0.976679
  C 5.129687 -0.867447 -2.110659
  C 4.615766 -1.386468 -3.404794
  C 3.123449 -1.499848 -3.688303
  C 2.906094 -2.062446 -5.091071
  O 6.443863 -0.864491 -2.104206
  H 3.916285 1.437235 1.280658
  H 3.917360 -0.185030 1.933226
  H 1.754400 0.279020 3.106250
  H 1.753469 1.912288 2.449427
  H 2.401613 -0.635411 -1.528005
  H 5.093490 -0.086290 -0.164169
  H 5.075297 -2.373625 -3.535777
  H 5.075829 -0.763788 -4.181634
  H 2.650314 -0.518980 -3.635023
  H 2.649972 -2.171889 -2.972100
  H 3.348529 -1.414598 -5.844024
  H 1.843454 -2.147270 -5.303073
  H 3.348351 -3.051167 -5.187633
  H 6.844254 -0.533329 -1.277263
 26
 18.385141
  H 1.448190 0.191410 0.533925
  C 2.526503 0.158452 0.449199
  C 3.309635 0.622261 1.597778
  C 2.452801 1.093187 2.769091
  H 3.082495 1.425247 3.591538
  C 3.044679 -0.321734 -0.745015
  C 4.459076 -0.429216 -1.015811
  C 5.023954 -0.876842 -2.132928
  C 4.609838 -1.403500 -3.447273
  C 3.130918 -1.527678 -3.758075
  C 2.942043 -2.090177 -5.161971
  O 6.258519 -0.784260 -1.904212
  H 3.975374 1.437686 1.280242
  H 3.977488 -0.184017 1.933642
  H 1.816135 0.290074 3.132161
  H 1.814350 1.922508 2.474485
  H 2.340994 -0.627580 -1.504145
  H 5.076093 -0.099467 -0.193791
  H 5.087452 -2.377281 -3.557559
  H 5.090264 -0.775218 -4.197307
  H 2.651266 -0.550017 -3.708866
  H 2.652021 -2.201041 -3.046774
  H 3.393173 -1.438350 -5.906816
  H 1.884110 -2.182572 -5.392246
  H 3.393435 -3.075814 -5.250974
  H 6.561508 -0.439827 -1.044890
 26
 68.254712
  H 1.443918 0.229904 0.629933
  C 2.505694 0.188811 0.524158
  C 3.311302 0.632092 1.621179
  C 2.496418 1.110138 2.811846
  H 3.152072 1.433085 3.611188
  C 3.007887 -0.318914 -0.738741
  C 4.506812 -0.442590 -1.049675
  C 4.960706 -0.897425 -2.184290
  C 4.620965 -1.420257 -3.489892
  C 3.145175 -1.552622 -3.821027
  C 2.973624 -2.117378 -5.229484
  O 6.144037 -0.742151 -1.798949
  H 3.974208 1.439872 1.282980
  H 3.977094 -0.182656 1.936250
  H 1.862733 0.313385 3.193414
  H 1.860042 1.947147 2.535613
  H 2.288847 -0.620794 -1.487725
  H 5.040501 -0.096904 -0.188477
  H 5.106808 -2.388386 -3.582298
  H 5.112607 -0.783036 -4.220113
  H 2.663035 -0.575689 -3.770867
  H 2.663667 -2.225760 -3.109747
  H 3.430680 -1.463076 -5.970483
  H 1.917959 -2.215154 -5.472291
  H 3.431337 -3.102113 -5.313119
  H 6.415565 -0.395780 -0.933271
 26
 123.854325
  H 1.388664 0.279482 0.691959
  C 2.467022 0.203517 0.515369
  C 3.324402 0.641115 1.646474
  C 2.505253 1.112953 2.853037
  H 3.165581 1.424796 3.658046
  C 2.814382 -0.268178 -0.682639
  C 4.670405 -0.441332 -1.080606
  C 4.932958 -0.905807 -2.226527
  C 4.644857 -1.439982 -3.546279
  C 3.154205 -1.575424 -3.865340
  C 2.965075 -2.144805 -5.266808
  O 6.191703 -0.714276 -1.736373
  H 3.969214 1.468430 1.314474
  H 3.963424 -0.195393 1.962084
  H 1.873517 0.317190 3.226891
  H 1.877421 1.954543 2.589572
  H 2.231044 -0.593067 -1.516905
  H 4.953459 -0.061764 -0.133301
  H 5.138614 -2.422552 -3.623307
  H 5.129167 -0.783678 -4.282294
  H 2.675516 -0.600382 -3.810805
  H 2.681573 -2.240190 -3.146452
  H 3.412641 -1.494214 -6.014620
  H 1.907870 -2.242967 -5.495355
  H 3.420826 -3.128214 -5.351618
  H 6.586898 -0.400960 -0.905419
 26
 145.663558
  H 1.221591 0.330514 0.817283
  C 2.290758 0.238530 0.557512
  C 3.231435 0.653430 1.660949
  C 2.479824 1.129503 2.894888
  H 3.178678 1.418968 3.675832
  C 2.583152 -0.245030 -0.623606
  C 4.935213 -0.458796 -1.137257
  C 5.033014 -0.942286 -2.301314
  C 4.709676 -1.488171 -3.593598
  C 3.198783 -1.583259 -3.857051
  C 2.947201 -2.129414 -5.254229
  O 6.384601 -0.750762 -1.818860
  H 3.868860 1.460823 1.296879
  H 3.846312 -0.206888 1.932687
  H 1.843327 0.342598 3.287495
  H 1.859680 1.989608 2.662821
  H 2.047497 -0.615377 -1.468159
  H 5.074718 -0.050469 -0.170378
  H 5.182280 -2.474900 -3.699955
  H 5.159379 -0.824358 -4.348030
  H 2.747343 -0.595586 -3.770605
  H 2.731080 -2.238964 -3.123753
  H 3.383197 -1.484049 -6.008822
  H 1.882836 -2.196197 -5.444186
  H 3.371133 -3.121097 -5.366196
  H 6.885758 -0.421264 -1.038756
 26
 151.688261
  H 1.056820 0.338898 0.910297
  C 2.099835 0.228606 0.598134
  C 3.113514 0.649083 1.645962
  C 2.443209 1.160835 2.915698
  H 3.189724 1.446107 3.650392
  C 2.356245 -0.286722 -0.565087
  C 5.179487 -0.505553 -1.209816
  C 5.183722 -0.988355 -2.379619
  C 4.793389 -1.523528 -3.644854
  C 3.265743 -1.564124 -3.816828
  C 2.911883 -2.082786 -5.202212
  O 6.591380 -0.794358 -1.896633
  H 3.741785 1.433319 1.223127
  H 3.717830 -0.226157 1.887099
  H 1.814661 0.393645 3.354058
  H 1.828924 2.029235 2.704626
  H 1.802792 -0.695197 -1.370865
  H 5.291327 -0.039487 -0.262959
  H 5.217256 -2.518851 -3.797952
  H 5.201972 -0.858643 -4.416838
  H 2.857867 -0.563643 -3.684558
  H 2.822698 -2.206979 -3.059517
  H 3.323488 -1.441441 -5.976442
  H 1.834625 -2.109874 -5.326852
  H 3.292633 -3.089008 -5.351374
  H 7.142625 -0.449895 -1.157007
 26
 145.323742
  H 0.971887 0.289909 0.964694
  C 1.991058 0.150431 0.584579
  C 3.040472 0.612083 1.571389
  C 2.423979 1.157930 2.852698
  H 3.199294 1.481918 3.543769
  C 2.205045 -0.365084 -0.572069
  C 5.476166 -0.526800 -1.264704
  C 5.215443 -0.991607 -2.417609
  C 4.842392 -1.529992 -3.659440
  C 3.293737 -1.469340 -3.742412
  C 2.852384 -2.026819 -5.090296
  O 6.833215 -0.764800 -1.874469
  H 3.647372 1.394216 1.106904
  H 3.689806 -0.232123 1.818538
  H 1.827852 0.394449 3.350503
  H 1.784106 2.013211 2.640455
  H 1.625545 -0.764951 -1.371083
  H 5.160255 -0.181535 -0.311080
  H 5.193560 -2.562707 -3.756265
  H 5.273240 -0.949664 -4.482644
  H 2.950973 -0.439111 -3.639894
  H 2.866208 -2.058421 -2.930528
  H 3.257194 -1.445738 -5.916271
  H 1.767075 -1.985350 -5.153156
  H 3.169377 -3.060693 -5.208312
  H 7.470933 -0.376549 -1.241619
 26
 133.273533
  H 1.003553 0.290021 0.951415
  C 2.025065 0.159071 0.574179
  C 3.080185 0.594219 1.574585
  C 2.462298 1.111612 2.868477
  H 3.241455 1.419094 3.569118
  C 2.219838 -0.327872 -0.597551
  C 5.503972 -0.468553 -1.265585
  C 5.075877 -0.899518 -2.409795
  C 4.775899 -1.517638 -3.632503
  C 3.225657 -1.446189 -3.817743
  C 2.853108 -2.097785 -5.139727
  O 6.860929 -0.674592 -1.721298
  H 3.687824 1.389380 1.125788
  H 3.727975 -0.259827 1.802082
  H 1.858616 0.336209 3.346793
  H 1.819560 1.972152 2.672271
  H 1.648639 -0.705848 -1.414237
  H 5.204601 -0.124219 -0.301159
  H 5.106205 -2.563765 -3.637074
  H 5.275915 -0.997974 -4.460409
  H 2.896808 -0.404499 -3.793858
  H 2.735584 -1.969387 -2.994058
  H 3.329361 -1.586361 -5.977213
  H 1.772519 -2.048093 -5.270685
  H 3.166602 -3.141112 -5.180582
  H 7.470519 -0.275664 -1.069551
 26
 111.446824
  H 1.212126 0.341778 0.804744
  C 2.235104 0.183999 0.432129
  C 3.266385 0.544546 1.468281
  C 2.636464 1.034308 2.766417
  H 3.412657 1.289061 3.483428
  C 2.316912 -0.276770 -0.753619
  C 5.536337 -0.465566 -1.223378
  C 4.962290 -0.830015 -2.319142
  C 4.563747 -1.483524 -3.516697
  C 3.045219 -1.511946 -3.864264
  C 2.821176 -2.157801 -5.222714
  O 6.874203 -0.378351 -1.053318
  H 3.905868 1.332063 1.063746
  H 3.873264 -0.339237 1.673685
  H 2.009520 0.264911 3.210149
  H 2.032685 1.923129 2.598156
  H 1.845855 -0.602078 -1.638757
  H 4.957905 -0.174526 -0.348761
  H 4.903854 -2.526218 -3.495904
  H 5.027186 -0.939291 -4.352010
  H 2.656467 -0.494064 -3.877005
  H 2.537143 -2.098390 -3.099927
  H 3.314916 -1.598625 -6.013786
  H 1.758062 -2.186286 -5.445636
  H 3.197015 -3.177864 -5.234503
  H 7.125896 0.091214 -0.240802
