 23
 0.000000
  C 0.967661 0.133616 0.422906
  C 2.441576 0.130997 0.394183
  C 3.211770 0.606920 1.557176
  H 2.597056 0.939263 2.384385
  C 3.051497 -0.336458 -0.764270
  C 4.427694 -0.416790 -0.965736
  C 5.109365 -0.868550 -2.092080
  C 4.608740 -1.384499 -3.395557
  C 3.121276 -1.494002 -3.690239
  H 2.993197 -1.889613 -4.692084
  O 6.428501 -0.872697 -2.079826
  H 0.563472 0.512757 1.355569
  H 0.595845 -0.878462 0.255419
  H 0.578915 0.731387 -0.403019
  H 3.862440 1.429887 1.255108
  H 3.871026 -0.187793 1.911645
  H 2.390959 -0.657031 -1.550306
  H 5.060722 -0.089075 -0.149660
  H 5.070694 -2.370164 -3.523107
  H 5.078621 -0.758688 -4.162961
  H 2.641203 -0.519682 -3.650991
  H 2.633401 -2.174335 -2.997125
  H 6.833135 -0.544125 -1.255891
 23
 2.046503
  C 1.022968 0.074482 0.341948
  C 2.488344 0.193190 0.388500
  C 3.191716 0.653111 1.591103
  H 2.496283 0.922156 2.383100
  C 3.123275 -0.244424 -0.767311
  C 4.480908 -0.375676 -0.941860
  C 5.095990 -0.881614 -2.074355
  C 4.549165 -1.397674 -3.360609
  C 3.053713 -1.469330 -3.636181
  H 2.915501 -1.881955 -4.632801
  O 6.427039 -0.935024 -2.104854
  H 0.531006 0.272670 1.281257
  H 0.836789 -0.949506 -0.008602
  H 0.607769 0.724337 -0.421552
  H 3.816331 1.519842 1.359106
  H 3.865595 -0.123657 1.960624
  H 2.481274 -0.546848 -1.572802
  H 5.129358 -0.072350 -0.135846
  H 4.982116 -2.398945 -3.479719
  H 5.027701 -0.796002 -4.143685
  H 2.594625 -0.485122 -3.627469
  H 2.547233 -2.130137 -2.938606
  H 6.866648 -0.626597 -1.290049
 23
 6.974010
  C 1.087718 0.007065 0.238172
  C 2.525659 0.251343 0.397421
  C 3.144599 0.685763 1.650621
  H 2.400486 0.881806 2.420422
  C 3.213931 -0.124473 -0.742562
  C 4.562145 -0.315760 -0.911652
  C 5.082141 -0.884071 -2.057012
  C 4.475730 -1.410147 -3.312808
  C 2.980557 -1.464246 -3.591483
  H 2.845686 -1.908762 -4.575087
  O 6.404650 -0.991694 -2.155735
  H 0.516268 0.017991 1.156036
  H 1.079970 -0.963092 -0.278082
  H 0.648811 0.722392 -0.463189
  H 3.736807 1.587188 1.487831
  H 3.838888 -0.074405 2.011492
  H 2.597854 -0.392088 -1.583073
  H 5.250772 -0.051648 -0.119652
  H 4.882151 -2.425254 -3.410045
  H 4.958721 -0.841345 -4.117309
  H 2.533121 -0.473230 -3.626571
  H 2.456734 -2.096956 -2.878350
  H 6.891390 -0.703153 -1.370155
 23
 14.184230
  C 1.175505 -0.072458 0.098403
  C 2.565054 0.309247 0.374036
  C 3.088522 0.697241 1.689858
  H 2.298003 0.787075 2.427942
  C 3.309024 0.027889 -0.750312
  C 4.638449 -0.249598 -0.896926
  C 5.069749 -0.884764 -2.044818
  C 4.401309 -1.425191 -3.260428
  C 2.899002 -1.444108 -3.492592
  H 2.723572 -1.933134 -4.447899
  O 6.385234 -1.048236 -2.189476
  H 0.562212 -0.252516 0.969337
  H 1.339416 -0.961373 -0.534228
  H 0.686631 0.670737 -0.531528
  H 3.627789 1.646331 1.620471
  H 3.818630 -0.040306 2.035943
  H 2.731145 -0.162562 -1.635928
  H 5.350903 -0.051708 -0.111289
  H 4.770618 -2.456407 -3.331813
  H 4.877531 -0.904725 -4.099955
  H 2.477390 -0.448987 -3.570003
  H 2.380072 -2.022346 -2.737253
  H 6.915895 -0.777235 -1.421709
 23
 22.130231
  C 1.283561 -0.203614 0.015911
  C 2.597728 0.386986 0.343048
  C 3.058486 0.729053 1.691780
  H 2.260131 0.658516 2.414187
  C 3.360778 0.234740 -0.799166
  C 4.667882 -0.155663 -0.911054
  C 5.036786 -0.894839 -2.023279
  C 4.337626 -1.447359 -3.221464
  C 2.835123 -1.384625 -3.445884
  H 2.621242 -1.910432 -4.374461
  O 6.337365 -1.180684 -2.126000
  H 0.708597 -0.551719 0.860049
  H 1.638631 -1.017171 -0.661210
  H 0.677852 0.483640 -0.577293
  H 3.473869 1.736513 1.707416
  H 3.870811 0.067941 1.992981
  H 2.805351 0.115983 -1.711420
  H 5.376885 -0.021559 -0.119517
  H 4.644975 -2.498806 -3.248686
  H 4.840938 -0.991132 -4.082145
  H 2.471576 -0.372030 -3.571945
  H 2.288742 -1.891209 -2.659385
  H 6.864046 -0.944773 -1.342756
 23
 28.462666
  C 1.458340 -0.427788 -0.018596
  C 2.619866 0.442304 0.286041
  C 3.068944 0.777435 1.634796
  H 2.338488 0.489620 2.382398
  C 3.344619 0.484304 -0.892925
  C 4.628112 -0.017664 -0.962608
  C 4.965500 -0.919323 -1.958601
  C 4.268158 -1.472375 -3.156087
  C 2.798516 -1.248084 -3.460117
  H 2.562060 -1.810237 -4.358793
  O 6.207249 -1.421003 -1.947582
  H 0.991508 -0.869074 0.854525
  H 1.952200 -1.184409 -0.673801
  H 0.708719 0.086671 -0.614765
  H 3.259002 1.850556 1.707375
  H 4.018272 0.293788 1.862877
  H 2.778840 0.432409 -1.800279
  H 5.302405 0.084103 -0.130110
  H 4.455758 -2.545851 -3.112618
  H 4.855365 -1.120286 -4.011082
  H 2.570189 -0.210237 -3.671453
  H 2.155574 -1.624994 -2.669151
  H 6.722373 -1.204268 -1.154106
 23
 34.023088
  C 1.688197 -0.702093 0.055475
  C 2.655474 0.392071 0.272286
  C 3.054442 0.895058 1.581466
  H 2.433460 0.488363 2.376128
  C 3.294788 0.546574 -0.943984
  C 4.587028 0.059662 -1.027627
  C 4.854336 -0.987031 -1.888791
  C 4.174616 -1.512566 -3.114326
  C 2.818861 -1.022156 -3.603397
  H 2.576380 -1.577910 -4.504006
  O 5.980854 -1.681338 -1.706151
  H 1.392636 -1.187421 0.984620
  H 2.261190 -1.393886 -0.611085
  H 0.796529 -0.377671 -0.473547
  H 2.984204 1.985702 1.586335
  H 4.100573 0.673820 1.797380
  H 2.680999 0.453674 -1.823121
  H 5.256585 0.195927 -0.197125
  H 4.144475 -2.600100 -2.995501
  H 4.903525 -1.335471 -3.916034
  H 2.841400 0.029803 -3.874756
  H 2.022845 -1.213786 -2.891217
  H 6.536121 -1.357842 -0.976282
 23
 42.175097
  C 1.880713 -0.821191 0.006187
  C 2.689351 0.396745 0.240276
  C 3.021972 0.931997 1.553457
  H 2.480161 0.424888 2.348389
  C 3.306321 0.646509 -0.985529
  C 4.593142 0.117405 -1.058994
  C 4.776466 -1.006916 -1.837161
  C 4.087327 -1.536870 -3.056846
  C 2.804166 -0.944692 -3.618916
  H 2.555445 -1.499582 -4.517755
  O 5.826893 -1.794710 -1.572430
  H 1.646875 -1.336930 0.933041
  H 2.550467 -1.435371 -0.652861
  H 0.953112 -0.625826 -0.526034
  H 2.782118 1.997297 1.572655
  H 4.093206 0.881429 1.755783
  H 2.690012 0.574359 -1.863878
  H 5.268194 0.254016 -0.227731
  H 3.953792 -2.611788 -2.888432
  H 4.853624 -1.464068 -3.839156
  H 2.933048 0.091168 -3.910166
  H 1.961299 -1.047647 -2.941633
  H 6.416281 -1.453862 -0.878643
 23
 51.633837
  C 2.052298 -0.898091 -0.054073
  C 2.723814 0.392653 0.204612
  C 3.024393 0.928497 1.522518
  H 2.609919 0.317491 2.318546
  C 3.296116 0.731418 -1.024484
  C 4.582427 0.186123 -1.096613
  C 4.688552 -1.013118 -1.774099
  C 4.000499 -1.568714 -2.988246
  C 2.806738 -0.889248 -3.638940
  H 2.564275 -1.443649 -4.538495
  O 5.685711 -1.845348 -1.435678
  H 1.859820 -1.440533 0.864043
  H 2.808618 -1.429714 -0.711543
  H 1.117162 -0.807769 -0.602568
  H 2.606112 1.937824 1.588435
  H 4.098278 1.064016 1.677071
  H 2.668828 0.639272 -1.894942
  H 5.263283 0.344274 -0.275423
  H 3.759950 -2.608140 -2.766472
  H 4.802260 -1.616368 -3.738960
  H 3.040416 0.130050 -3.942632
  H 1.920624 -0.906110 -3.010354
  H 6.281620 -1.496776 -0.752121
 23
 61.623625
  C 2.185570 -0.946442 -0.090607
  C 2.750588 0.388089 0.173346
  C 3.047562 0.925538 1.489699
  H 2.794262 0.234169 2.288503
  C 3.274062 0.790169 -1.062546
  C 4.560382 0.232091 -1.130676
  C 4.602239 -1.030359 -1.714335
  C 3.938311 -1.597775 -2.941151
  C 2.827716 -0.855795 -3.663250
  H 2.606526 -1.398686 -4.577519
  O 5.567529 -1.878665 -1.319697
  H 2.009656 -1.503233 0.823321
  H 3.018083 -1.410236 -0.741763
  H 1.269537 -0.940400 -0.674470
  H 2.457638 1.841189 1.616797
  H 4.084185 1.253064 1.579341
  H 2.637012 0.688781 -1.924617
  H 5.244941 0.407807 -0.316186
  H 3.614328 -2.614031 -2.700372
  H 4.767676 -1.723077 -3.647611
  H 3.136737 0.148116 -3.949517
  H 1.906462 -0.820781 -3.086956
  H 6.165198 -1.518134 -0.643398
 23
 72.172640
  C 2.278932 -0.973181 -0.098880
  C 2.766683 0.388168 0.152078
  C 3.077359 0.937205 1.460977
  H 2.993986 0.201366 2.255368
  C 3.252478 0.816699 -1.095496
  C 4.540055 0.260369 -1.167425
  C 4.524164 -1.055694 -1.666111
  C 3.908291 -1.622612 -2.921667
  C 2.859757 -0.841016 -3.696933
  H 2.675371 -1.365289 -4.632673
  O 5.473416 -1.903983 -1.228654
  H 2.117942 -1.536522 0.814939
  H 3.180220 -1.383079 -0.760192
  H 1.388105 -1.036772 -0.715889
  H 2.353259 1.730587 1.659134
  H 4.053245 1.436289 1.482374
  H 2.603367 0.702039 -1.947138
  H 5.224804 0.446102 -0.354035
  H 3.534903 -2.621466 -2.690870
  H 4.764687 -1.780484 -3.581819
  H 3.209651 0.158073 -3.947534
  H 1.909491 -0.789835 -3.172268
  H 6.058290 -1.534051 -0.546362
 23
 82.803940
  C 2.335264 -0.977166 -0.091250
  C 2.778001 0.394296 0.140888
  C 3.096324 0.960523 1.442077
  H 3.112634 0.214868 2.232431
  C 3.240962 0.824686 -1.120175
  C 4.527010 0.278792 -1.197926
  C 4.469986 -1.085471 -1.634156
  C 3.910490 -1.644542 -2.925631
  C 2.892633 -0.848235 -3.726442
  H 2.744631 -1.352925 -4.677731
  O 5.426285 -1.919284 -1.177848
  H 2.194274 -1.545919 0.821423
  H 3.307804 -1.358302 -0.793351
  H 1.469764 -1.095592 -0.734375
  H 2.307589 1.680629 1.683945
  H 4.019176 1.542944 1.423081
  H 2.581030 0.688399 -1.960839
  H 5.211217 0.469496 -0.383450
  H 3.524603 -2.642587 -2.718605
  H 4.794194 -1.795596 -3.553868
  H 3.250199 0.153655 -3.942121
  H 1.922715 -0.807516 -3.236870
  H 6.002893 -1.534948 -0.496042
 23
 92.004816
  C 2.339876 -0.960936 -0.062691
  C 2.778551 0.406451 0.137512
  C 3.126611 0.983249 1.429125
  H 3.200788 0.237262 2.215425
  C 3.213331 0.829637 -1.140582
  C 4.496078 0.297358 -1.216483
  C 4.437155 -1.121068 -1.617770
  C 3.946070 -1.668053 -2.947356
  C 2.938071 -0.872873 -3.762289
  H 2.823164 -1.361995 -4.726397
  O 5.426832 -1.917461 -1.158106
  H 2.213989 -1.529964 0.850852
  H 3.409599 -1.360263 -0.836749
  H 1.507229 -1.122918 -0.735743
  H 2.320017 1.670336 1.705767
  H 4.025440 1.598143 1.375700
  H 2.541782 0.662165 -1.967491
  H 5.179924 0.496608 -0.401374
  H 3.572773 -2.676716 -2.772884
  H 4.855025 -1.787073 -3.544933
  H 3.285573 0.138007 -3.948669
  H 1.954828 -0.855476 -3.297121
  H 5.984619 -1.509607 -0.473837
 23
 97.540953
  C 2.300526 -0.914593 -0.028447
  C 2.766233 0.433012 0.146816
  C 3.180640 0.997819 1.428695
  H 3.300022 0.241909 2.198563
  C 3.160992 0.849694 -1.155796
  C 4.443442 0.331376 -1.228451
  C 4.426236 -1.160998 -1.618851
  C 4.013922 -1.697616 -2.981070
  C 2.998582 -0.924088 -3.811191
  H 2.922889 -1.403054 -4.786270
  O 5.466418 -1.901041 -1.162052
  H 2.183000 -1.489006 0.884163
  H 3.491068 -1.390352 -0.890797
  H 1.504143 -1.105822 -0.733148
  H 2.383584 1.672336 1.753925
  H 4.071535 1.618078 1.342766
  H 2.475299 0.654732 -1.966448
  H 5.137191 0.550618 -0.422956
  H 3.674360 -2.724183 -2.837116
  H 4.945232 -1.769461 -3.549947
  H 3.316200 0.098701 -3.973255
  H 2.004171 -0.944993 -3.369484
  H 5.976547 -1.476123 -0.450848
