 19
 0.000000
  C 1.014789 0.120277 0.350894
  C 2.486220 0.117155 0.343136
  C 3.221849 0.591597 1.522896
  H 2.555728 0.910793 2.317226
  C 3.129805 -0.341315 -0.797610
  C 4.518248 -0.406438 -0.960769
  C 5.164326 -0.858110 -2.087358
  C 4.554603 -1.351217 -3.317315
  H 3.471802 -1.351257 -3.317999
  H 6.247631 -0.855871 -2.082093
  H 0.604503 0.495251 1.283353
  H 0.634626 -0.888179 0.173923
  H 0.634643 0.725608 -0.474862
  H 3.877415 1.421663 1.254235
  H 3.877784 -0.193150 1.903513
  H 2.496250 -0.667998 -1.610585
  H 5.129507 -0.074321 -0.133630
  H 4.923970 -2.360574 -3.516116
  H 4.924336 -0.759003 -4.158341
 19
 4.752735
  C 1.021732 0.113430 0.333472
  C 2.479041 0.130799 0.376850
  C 3.182114 0.608312 1.565063
  H 2.495140 0.921034 2.343880
  C 3.170071 -0.311414 -0.723886
  C 4.537679 -0.401599 -0.949487
  C 5.139363 -0.867208 -2.110411
  C 4.504859 -1.357246 -3.331810
  H 3.418466 -1.353215 -3.321823
  H 6.220813 -0.872708 -2.124585
  H 0.574982 0.481917 1.250247
  H 0.664330 -0.899419 0.136871
  H 0.664408 0.708679 -0.509275
  H 3.837207 1.443208 1.309387
  H 3.837719 -0.171126 1.957855
  H 2.747505 -0.673928 -1.626168
  H 5.213856 -0.083382 -0.157019
  H 4.863792 -2.369564 -3.536626
  H 4.863886 -0.767372 -4.179597
 19
 14.912224
  C 1.009538 0.103811 0.308793
  C 2.481001 0.138354 0.394661
  C 3.158856 0.625127 1.608067
  H 2.453803 0.932175 2.374996
  C 3.215693 -0.296220 -0.688088
  C 4.567561 -0.402814 -0.954567
  C 5.120368 -0.871553 -2.121957
  C 4.456144 -1.358104 -3.332546
  H 3.367385 -1.350262 -3.312691
  H 6.207326 -0.888251 -2.164035
  H 0.530399 0.467024 1.214190
  H 0.668840 -0.915641 0.097993
  H 0.668530 0.694810 -0.548086
  H 3.815144 1.464939 1.364830
  H 3.816074 -0.149532 2.011873
  H 2.968433 -0.676246 -1.634145
  H 5.296758 -0.097439 -0.194313
  H 4.806598 -2.374338 -3.541503
  H 4.806420 -0.769109 -4.186691
 19
 28.286470
  C 1.016966 0.100228 0.300315
  C 2.473262 0.143749 0.408679
  C 3.130162 0.634635 1.630855
  H 2.414746 0.937742 2.387771
  C 3.226761 -0.284467 -0.657493
  C 4.577948 -0.403897 -0.955378
  C 5.110335 -0.876681 -2.133871
  C 4.430331 -1.362534 -3.344452
  H 3.347413 -1.352903 -3.320318
  H 6.178552 -0.898538 -2.188649
  H 0.523705 0.459425 1.195067
  H 0.690034 -0.913322 0.085348
  H 0.689882 0.683765 -0.555795
  H 3.784432 1.473761 1.395188
  H 3.786036 -0.133605 2.040133
  H 3.134825 -0.673675 -1.626314
  H 5.331950 -0.111650 -0.227462
  H 4.774217 -2.375492 -3.555315
  H 4.774155 -0.776364 -4.197187
 19
 42.755428
  C 1.001272 0.102088 0.305452
  C 2.462539 0.147865 0.418420
  C 3.113137 0.637779 1.638146
  H 2.397367 0.939631 2.392942
  C 3.222828 -0.279153 -0.645302
  C 4.587355 -0.408636 -0.966971
  C 5.112164 -0.882183 -2.147008
  C 4.420471 -1.364736 -3.350170
  H 3.332011 -1.350309 -3.315247
  H 6.193766 -0.907756 -2.209802
  H 0.502389 0.461822 1.202460
  H 0.675307 -0.917497 0.087348
  H 0.674499 0.687869 -0.556801
  H 3.767475 1.476558 1.402443
  H 3.769659 -0.129802 2.046727
  H 3.266819 -0.671281 -1.622296
  H 5.366121 -0.122218 -0.251984
  H 4.758655 -2.381260 -3.563304
  H 4.759306 -0.777852 -4.206845
 19
 56.465625
  C 0.991378 0.103645 0.313691
  C 2.449221 0.149123 0.420229
  C 3.107216 0.642960 1.644719
  H 2.391695 0.946197 2.404719
  C 3.200939 -0.279360 -0.647576
  C 4.578427 -0.416763 -0.980480
  C 5.113428 -0.887509 -2.156164
  C 4.423768 -1.368590 -3.363772
  H 3.329621 -1.350782 -3.325449
  H 6.195555 -0.912704 -2.212888
  H 0.498617 0.460942 1.205082
  H 0.665673 -0.913321 0.095585
  H 0.663078 0.686057 -0.547014
  H 3.763460 1.485473 1.405919
  H 3.768178 -0.127659 2.053316
  H 3.354960 -0.667992 -1.618139
  H 5.358763 -0.131197 -0.258034
  H 4.760374 -2.390578 -3.578086
  H 4.764388 -0.777322 -4.222811
 19
 67.213044
  C 0.968796 0.085720 0.337777
  C 2.454850 0.146726 0.401137
  C 3.112387 0.674384 1.622649
  H 2.389739 0.964076 2.366586
  C 3.189655 -0.270050 -0.638145
  C 4.571267 -0.466890 -1.002558
  C 5.132907 -0.911452 -2.156335
  C 4.448620 -1.354632 -3.387927
  H 3.362491 -1.310094 -3.344073
  H 6.215392 -0.954828 -2.195488
  H 0.508795 0.457080 1.249600
  H 0.630094 -0.934521 0.155711
  H 0.616406 0.670745 -0.510180
  H 3.740022 1.527236 1.388894
  H 3.769273 -0.084916 2.031278
  H 3.403854 -0.655431 -1.620971
  H 5.322453 -0.216478 -0.239126
  H 4.747738 -2.375459 -3.625495
  H 4.801287 -0.749662 -4.223110
 19
 70.707823
  C 0.951336 0.061623 0.372604
  C 2.446541 0.145858 0.394176
  C 3.110685 0.733368 1.620827
  H 2.368967 1.020505 2.360276
  C 3.168123 -0.265406 -0.622338
  C 4.555646 -0.545439 -1.035415
  C 5.154609 -0.953723 -2.168949
  C 4.491717 -1.330494 -3.435646
  H 3.394936 -1.245566 -3.394923
  H 6.238219 -1.027827 -2.177369
  H 0.528626 0.443998 1.284746
  H 0.624736 -0.962522 0.238549
  H 0.569978 0.636909 -0.462495
  H 3.705352 1.608198 1.362350
  H 3.780587 -0.011307 2.049345
  H 3.418982 -0.653558 -1.630689
  H 5.256829 -0.357357 -0.211094
  H 4.750276 -2.358504 -3.704260
  H 4.874414 -0.697487 -4.241054
 19
 74.873131
  C 0.942793 0.055301 0.410365
  C 2.435593 0.151155 0.408923
  C 3.105610 0.766828 1.603460
  H 2.370957 1.060598 2.343208
  C 3.143703 -0.269788 -0.607784
  C 4.541497 -0.595946 -1.043222
  C 5.157229 -0.980184 -2.169218
  C 4.518034 -1.309472 -3.476718
  H 3.437153 -1.203240 -3.466509
  H 6.230408 -1.075553 -2.146117
  H 0.526438 0.455865 1.337264
  H 0.626152 -0.985650 0.299864
  H 0.537143 0.618308 -0.433908
  H 3.682402 1.643740 1.311446
  H 3.789403 0.040630 2.043542
  H 3.441114 -0.664716 -1.606641
  H 5.207443 -0.451769 -0.183438
  H 4.766067 -2.338906 -3.766500
  H 4.936352 -0.660481 -4.258170
 19
 78.531832
  C 0.924589 0.039109 0.444904
  C 2.423109 0.152340 0.416409
  C 3.107046 0.818252 1.582165
  H 2.381007 1.125933 2.325456
  C 3.116429 -0.288714 -0.601007
  C 4.527907 -0.665146 -1.045960
  C 5.161742 -1.018328 -2.177214
  C 4.546497 -1.266863 -3.500670
  H 3.471514 -1.123046 -3.509521
  H 6.239813 -1.150084 -2.131672
  H 0.524043 0.453843 1.354157
  H 0.621900 -0.999003 0.369625
  H 0.498264 0.567878 -0.398084
  H 3.665378 1.694125 1.250805
  H 3.810148 0.118737 2.036067
  H 3.461387 -0.704191 -1.595339
  H 5.162589 -0.582485 -0.155973
  H 4.767358 -2.283103 -3.824754
  H 5.000893 -0.606653 -4.238367
 19
 81.854319
  C 0.914176 0.029055 0.482415
  C 2.413490 0.152510 0.418301
  C 3.113875 0.859511 1.542852
  H 2.401176 1.183644 2.291133
  C 3.087284 -0.312329 -0.599860
  C 4.506175 -0.727162 -1.037026
  C 5.162029 -1.046900 -2.168753
  C 4.577228 -1.222351 -3.518916
  H 3.504916 -1.048518 -3.551955
  H 6.226484 -1.205828 -2.097505
  H 0.527132 0.469749 1.394825
  H 0.618366 -1.014256 0.442903
  H 0.462849 0.530656 -0.366776
  H 3.654341 1.725620 1.173280
  H 3.831362 0.184619 2.001775
  H 3.478812 -0.749011 -1.578591
  H 5.108715 -0.703923 -0.121903
  H 4.783376 -2.234328 -3.882018
  H 5.071553 -0.541706 -4.219222
 19
 84.381067
  C 0.904136 0.018030 0.523015
  C 2.401176 0.150151 0.415519
  C 3.125711 0.908047 1.494606
  H 2.431343 1.253552 2.247689
  C 3.053101 -0.343770 -0.603076
  C 4.472282 -0.798094 -1.028367
  C 5.158622 -1.079444 -2.156455
  C 4.612270 -1.166197 -3.527579
  H 3.550778 -0.955552 -3.582000
  H 6.220246 -1.273786 -2.058778
  H 0.538835 0.483873 1.424147
  H 0.617855 -1.025317 0.526705
  H 0.427573 0.484264 -0.326325
  H 3.647947 1.765488 1.076980
  H 3.864085 0.257274 1.960002
  H 3.483006 -0.804390 -1.570413
  H 5.036818 -0.842631 -0.092856
  H 4.798971 -2.164220 -3.937284
  H 5.149766 -0.467676 -4.176176
 19
 86.498905
  C 0.904812 0.014374 0.551855
  C 2.398175 0.151840 0.418760
  C 3.133080 0.957814 1.459323
  H 2.441870 1.328114 2.213933
  C 3.039195 -0.371215 -0.589808
  C 4.452701 -0.866413 -1.022203
  C 5.160336 -1.111743 -2.151296
  C 4.642930 -1.112621 -3.534041
  H 3.585344 -0.862578 -3.600399
  H 6.210828 -1.342282 -2.039596
  H 0.549037 0.509054 1.443210
  H 0.626773 -1.031073 0.595357
  H 0.410611 0.449812 -0.308252
  H 3.641304 1.802080 1.002429
  H 3.881991 0.333018 1.936317
  H 3.488892 -0.875252 -1.559763
  H 4.989224 -0.970312 -0.076178
  H 4.807163 -2.092463 -3.989071
  H 5.217207 -0.402175 -4.135211
 19
 87.631203
  C 0.915496 0.015236 0.561204
  C 2.403065 0.168437 0.422355
  C 3.134417 1.009017 1.444774
  H 2.447609 1.386972 2.183889
  C 3.049501 -0.370981 -0.569039
  C 4.441357 -0.916637 -1.019209
  C 5.159665 -1.138579 -2.151656
  C 4.661423 -1.068298 -3.538237
  H 3.616490 -0.774664 -3.609351
  H 6.196319 -1.410306 -2.033559
  H 0.553906 0.527600 1.448394
  H 0.650216 -1.037436 0.627646
  H 0.412145 0.427650 -0.308942
  H 3.633744 1.845073 0.968306
  H 3.893032 0.400875 1.937493
  H 3.498391 -0.928798 -1.549018
  H 4.957210 -1.070660 -0.068801
  H 4.795330 -2.038115 -4.027964
  H 5.269471 -0.361765 -4.106119
