 17
 0.000000
  C 1.008619 -0.071149 0.048382
  C 2.504671 -0.082990 0.025136
  C 3.219451 -0.595667 -0.981334
  C 4.656214 -0.606405 -1.002411
  C 5.377472 -1.121483 -2.013595
  C 6.815140 -1.131543 -2.033342
  C 7.531460 -1.641731 -3.034933
  H 8.603528 -1.654363 -3.059728
  H 0.646541 0.394826 0.963163
  H 0.612976 -1.085487 0.008694
  H 0.612976 0.493136 -0.795441
  H 3.006290 0.351923 0.878947
  H 2.708081 -1.028810 -1.831656
  H 5.160184 -0.171548 -0.148720
  H 4.873541 -1.556197 -2.867013
  H 7.321193 -0.697041 -1.180338
  H 7.035246 -2.077733 -3.890865
 17
 -0.062022
  C 1.035827 -0.074121 0.144916
  C 2.517310 0.020431 -0.022224
  C 3.200561 -0.599733 -0.990365
  C 4.627903 -0.504342 -1.121153
  C 5.362252 -1.182991 -2.018329
  C 6.792815 -1.074723 -2.124566
  C 7.525599 -1.762379 -2.997355
  H 8.594361 -1.660775 -3.052632
  H 0.688071 0.584518 0.934820
  H 0.743864 -1.096872 0.398022
  H 0.526508 0.193518 -0.779817
  H 3.049953 0.627167 0.695246
  H 2.678845 -1.211941 -1.716623
  H 5.125638 0.164416 -0.429821
  H 4.877971 -1.864002 -2.705380
  H 7.272653 -0.384807 -1.441055
  H 7.073735 -2.455525 -3.688538
 17
 0.052478
  C 1.012166 -0.101978 0.089189
  C 2.504092 -0.131143 0.042006
  C 3.209530 -0.464619 -1.042926
  C 4.644473 -0.529519 -1.060292
  C 5.371143 -1.066695 -2.055357
  C 6.808858 -1.134677 -2.047602
  C 7.528450 -1.713743 -3.006057
  H 8.603182 -1.750838 -2.970551
  H 0.658736 0.396847 0.985887
  H 0.612253 -1.120423 0.085589
  H 0.607202 0.412278 -0.783442
  H 3.023202 0.128565 0.953090
  H 2.697452 -0.733139 -1.959667
  H 5.151697 -0.129946 -0.191593
  H 4.874468 -1.501156 -2.912429
  H 7.305579 -0.677758 -1.200551
  H 7.060382 -2.176577 -3.860120
 17
 0.605368
  C 1.012970 -0.151266 0.066479
  C 2.502703 -0.210128 0.045928
  C 3.231613 -0.317898 -1.066598
  C 4.668370 -0.438863 -1.063245
  C 5.373843 -0.980963 -2.066787
  C 6.805134 -1.133575 -2.051230
  C 7.489385 -1.797475 -2.977594
  H 8.563493 -1.901974 -2.931521
  H 0.655019 0.391652 0.942365
  H 0.597102 -1.162312 0.104210
  H 0.631895 0.328388 -0.828986
  H 2.998486 -0.178912 1.008044
  H 2.739002 -0.365978 -2.027851
  H 5.182563 -0.093504 -0.171758
  H 4.852651 -1.371624 -2.928496
  H 7.325350 -0.674445 -1.219671
  H 6.997441 -2.266275 -3.811808
 17
 2.991355
  C 1.019877 -0.230146 0.031969
  C 2.508045 -0.325539 0.021776
  C 3.263949 -0.141309 -1.058189
  C 4.707223 -0.299622 -1.068111
  C 5.371526 -0.880388 -2.074332
  C 6.800765 -1.078847 -2.092804
  C 7.417182 -1.948861 -2.886209
  H 8.486163 -2.083236 -2.866822
  H 0.662096 0.134836 0.992442
  H 0.579971 -1.217365 -0.134243
  H 0.666483 0.432448 -0.756818
  H 2.975304 -0.588847 0.959585
  H 2.799601 0.121291 -2.001312
  H 5.246012 0.054595 -0.198819
  H 4.812758 -1.273330 -2.912172
  H 7.375118 -0.472800 -1.401929
  H 6.868497 -2.560140 -3.584705
 17
 6.440660
  C 1.039081 -0.312358 -0.025822
  C 2.528811 -0.416997 -0.027931
  C 3.307453 0.022165 -1.008364
  C 4.754391 -0.178263 -1.053473
  C 5.355751 -0.788950 -2.074838
  C 6.783289 -1.032018 -2.159196
  C 7.317503 -2.077926 -2.775814
  H 8.381125 -2.238189 -2.810941
  H 0.655133 -0.258366 0.990060
  H 0.604629 -1.195366 -0.500721
  H 0.707433 0.563958 -0.579367
  H 2.970780 -0.942772 0.809422
  H 2.875342 0.577721 -1.833610
  H 5.330112 0.154739 -0.199238
  H 4.743711 -1.145372 -2.893801
  H 7.420162 -0.304870 -1.672891
  H 6.704686 -2.816724 -3.264904
 17
 10.840558
  C 1.065191 -0.403101 -0.129159
  C 2.558969 -0.450652 -0.054722
  C 3.370350 0.148291 -0.916519
  C 4.816174 -0.082452 -0.990822
  C 5.326246 -0.721063 -2.041638
  C 6.741464 -1.000496 -2.259132
  C 7.206538 -2.169421 -2.668648
  H 8.259629 -2.349028 -2.802601
  H 0.618447 -0.583018 0.845923
  H 0.712738 -1.180314 -0.805271
  H 0.719071 0.556808 -0.506535
  H 2.973858 -1.123215 0.686700
  H 2.985292 0.921009 -1.572251
  H 5.432361 0.205249 -0.149928
  H 4.628086 -1.011881 -2.819107
  H 7.424230 -0.179330 -2.065946
  H 6.549050 -2.999091 -2.871535
 17
 16.936840
  C 1.081694 -0.446424 -0.257122
  C 2.562296 -0.470446 -0.050476
  C 3.438846 0.161624 -0.825986
  C 4.894095 -0.051408 -0.847818
  C 5.313397 -0.708894 -1.926124
  C 6.684871 -0.990397 -2.350613
  C 7.147198 -2.193722 -2.634399
  H 8.167742 -2.358068 -2.944691
  H 0.551214 -0.680109 0.665485
  H 0.809361 -1.197579 -1.005999
  H 0.747069 0.520254 -0.620873
  H 2.924209 -1.189073 0.673684
  H 3.113438 1.035831 -1.388644
  H 5.525787 0.249275 -0.023805
  H 4.482094 -0.945765 -2.592406
  H 7.314161 -0.115501 -2.484177
  H 6.531213 -3.070579 -2.531267
 17
 25.699928
  C 1.120769 -0.516820 -0.358961
  C 2.575201 -0.420310 -0.011144
  C 3.475961 0.182464 -0.777852
  C 4.929253 -0.034778 -0.751687
  C 5.310562 -0.661535 -1.860441
  C 6.607727 -0.986331 -2.432288
  C 7.082162 -2.210779 -2.574989
  H 8.044757 -2.393315 -3.008817
  H 0.508348 -0.604216 0.541248
  H 0.958330 -1.404506 -0.968767
  H 0.785524 0.348007 -0.919792
  H 2.921627 -1.112312 0.745456
  H 3.190091 1.090342 -1.300976
  H 5.564815 0.290193 0.045415
  H 4.400979 -0.840190 -2.465671
  H 7.201116 -0.132258 -2.739151
  H 6.503168 -3.076877 -2.300403
 17
 43.067095
  C 1.200365 -0.621439 -0.485265
  C 2.602220 -0.371756 -0.035625
  C 3.515067 0.246221 -0.775722
  C 4.967973 0.084762 -0.635731
  C 5.322920 -0.631493 -1.713572
  C 6.475065 -1.021736 -2.506780
  C 7.035132 -2.220304 -2.488702
  H 7.821604 -2.492206 -3.178034
  H 0.522112 -0.704296 0.359881
  H 1.163207 -1.561668 -1.034310
  H 0.849019 0.164075 -1.151710
  H 2.934678 -0.967643 0.807205
  H 3.237355 1.166844 -1.278020
  H 5.575887 0.430133 0.185918
  H 4.282573 -0.762452 -2.181291
  H 6.862327 -0.249941 -3.172487
  H 6.692487 -2.991587 -1.819525
 17
 71.410542
  C 1.298105 -0.778689 -0.525817
  C 2.668290 -0.385385 -0.080745
  C 3.551388 0.257200 -0.883755
  C 5.004670 0.227606 -0.610937
  C 5.423592 -0.479421 -1.657372
  C 6.479573 -1.010870 -2.450299
  C 6.861476 -2.282988 -2.452698
  H 7.650988 -2.629888 -3.094096
  H 0.631747 -0.885260 0.329089
  H 1.316871 -1.730893 -1.060291
  H 0.875010 -0.019646 -1.186104
  H 3.040407 -0.883524 0.805299
  H 3.242953 1.201441 -1.317272
  H 5.517341 0.581446 0.263267
  H 4.101777 -0.524681 -2.092073
  H 6.882043 -0.330988 -3.194809
  H 6.404121 -3.011781 -1.801465
 17
 82.071604
  C 1.335324 -0.826736 -0.564206
  C 2.674977 -0.393777 -0.079148
  C 3.590421 0.250784 -0.931039
  C 5.058364 0.260439 -0.605703
  C 5.557359 -0.457401 -1.573032
  C 6.488977 -1.018027 -2.428684
  C 6.818876 -2.324521 -2.483767
  H 7.528838 -2.692965 -3.202107
  H 0.653434 -0.957511 0.274350
  H 1.390502 -1.784824 -1.092202
  H 0.914635 -0.094700 -1.252133
  H 3.043868 -0.869434 0.815928
  H 3.264480 1.167636 -1.417522
  H 5.521785 0.722849 0.249459
  H 3.864709 -0.463159 -1.913164
  H 6.908619 -0.335994 -3.164062
  H 6.410651 -3.035768 -1.786821
 17
 78.897169
  C 1.297312 -0.819340 -0.511848
  C 2.654069 -0.382510 -0.088626
  C 3.554996 0.230451 -1.038994
  C 5.028657 0.181048 -0.691935
  C 5.660111 -0.478073 -1.605733
  C 6.598766 -1.026605 -2.428350
  C 6.914830 -2.347251 -2.499777
  H 7.646099 -2.708775 -3.199344
  H 0.654583 -0.956919 0.359901
  H 1.327704 -1.772524 -1.054266
  H 0.840006 -0.087955 -1.173591
  H 3.060521 -0.823917 0.800476
  H 3.276510 1.226697 -1.399652
  H 5.411559 0.622122 0.216235
  H 3.598464 -0.404231 -1.983254
  H 7.062394 -0.338130 -3.132689
  H 6.472517 -3.064470 -1.833308
 17
 76.096116
  C 1.321694 -0.876545 -0.472834
  C 2.617534 -0.274713 -0.070241
  C 3.525864 0.246174 -1.071190
  C 5.005686 0.180742 -0.692859
  C 5.698131 -0.456875 -1.567932
  C 6.638269 -1.023012 -2.372854
  C 6.841885 -2.358057 -2.533355
  H 7.613500 -2.729945 -3.181677
  H 0.703504 -1.078180 0.398345
  H 1.460830 -1.823362 -1.008617
  H 0.780047 -0.210395 -1.145816
  H 2.990662 -0.504258 0.914057
  H 3.303595 1.258977 -1.415759
  H 5.322957 0.581448 0.257917
  H 3.497011 -0.389865 -1.983185
  H 7.220613 -0.330266 -2.974564
  H 6.267149 -3.081348 -1.982095
 17
 65.796500
  C 1.464365 -0.980464 -0.691589
  C 2.548427 -0.131649 -0.133760
  C 3.604648 0.352703 -0.961505
  C 5.038610 -0.056526 -0.385388
  C 5.874746 -0.594391 -1.177745
  C 6.566111 -1.051584 -2.267478
  C 6.585771 -2.332230 -2.706404
  H 7.206183 -2.631115 -3.529100
  H 0.753902 -1.267527 0.078536
  H 1.861881 -1.895013 -1.144669
  H 0.933379 -0.446909 -1.482663
  H 2.661757 -0.114437 0.938560
  H 3.688776 1.438110 -1.035918
  H 5.137773 0.135327 0.666960
  H 3.528479 -0.064059 -1.968472
  H 7.186349 -0.318271 -2.773032
  H 5.993860 -3.088195 -2.222429
