 29
 0.000000
  C 0.966735 0.139821 0.399685
  C 2.442677 0.138078 0.394954
  C 3.231364 0.606486 1.560246
  C 2.459337 1.097314 2.781731
  C 3.416227 1.540382 3.884196
  C 3.058078 -0.326743 -0.762058
  C 4.436094 -0.409947 -0.969873
  C 5.118734 -0.860797 -2.094182
  C 4.625695 -1.383520 -3.397493
  C 3.136951 -1.501621 -3.692355
  H 2.987801 -1.900537 -4.687064
  O 6.441168 -0.855599 -2.081781
  H 0.534869 0.510416 1.321833
  H 0.594886 -0.871725 0.231737
  H 0.594613 0.753687 -0.421539
  H 3.888056 1.417155 1.224960
  H 3.888212 -0.210636 1.879153
  H 1.822227 0.301397 3.171746
  H 1.822162 1.941759 2.512573
  H 4.051979 0.717495 4.203700
  H 2.857232 1.888051 4.749493
  H 4.051902 2.355582 3.545412
  H 2.400784 -0.644455 -1.552849
  H 5.049556 -0.076375 -0.138830
  H 5.084428 -2.370920 -3.521923
  H 5.084652 -0.755937 -4.169774
  H 2.658813 -0.525579 -3.644863
  H 2.658631 -2.174276 -2.983647
  H 6.804278 -0.518741 -1.241015
 29
 1.161578
  C 0.947238 0.059942 0.447568
  C 2.420744 0.095511 0.416662
  C 3.214263 0.625487 1.549567
  C 2.452436 1.127907 2.772798
  C 3.424619 1.633631 3.834660
  C 3.033527 -0.385844 -0.733819
  C 4.409930 -0.411712 -0.955301
  C 5.105731 -0.851745 -2.078138
  C 4.622035 -1.360533 -3.390370
  C 3.143819 -1.345049 -3.744536
  H 3.032515 -1.700007 -4.766039
  O 6.426184 -0.793692 -2.067693
  H 0.529986 0.369569 1.397195
  H 0.591075 -0.942704 0.208762
  H 0.550835 0.707645 -0.336747
  H 3.837862 1.446327 1.176788
  H 3.912804 -0.152640 1.876999
  H 1.854162 0.323100 3.203032
  H 1.784213 1.943894 2.493443
  H 4.099602 0.842426 4.153556
  H 2.881728 1.983462 4.709120
  H 4.019324 2.462066 3.455700
  H 2.377492 -0.761239 -1.499237
  H 5.039050 0.003614 -0.178156
  H 4.996120 -2.388843 -3.463744
  H 5.185298 -0.807123 -4.150229
  H 2.734518 -0.339588 -3.697937
  H 2.572823 -2.011828 -3.105565
  H 6.846993 -0.800155 -1.188704
 29
 5.767930
  C 0.945551 0.014358 0.476453
  C 2.416205 0.078363 0.428934
  C 3.209173 0.627456 1.552452
  C 2.450508 1.096464 2.790795
  C 3.421859 1.624637 3.842654
  C 3.029256 -0.388869 -0.729933
  C 4.404244 -0.389055 -0.961020
  C 5.104190 -0.849134 -2.068515
  C 4.632610 -1.388810 -3.368079
  C 3.162279 -1.352596 -3.748133
  H 3.059314 -1.730163 -4.762332
  O 6.434742 -0.698392 -2.059092
  H 0.539145 0.219670 1.458469
  H 0.596082 -0.959471 0.134502
  H 0.531682 0.738430 -0.228420
  H 3.798766 1.470285 1.173384
  H 3.941561 -0.125946 1.862498
  H 1.884869 0.269785 3.223777
  H 1.752006 1.892723 2.527469
  H 4.138011 0.858817 4.130734
  H 2.882946 1.932326 4.735523
  H 3.970624 2.485743 3.469134
  H 2.376209 -0.764796 -1.496173
  H 5.036866 0.071280 -0.214046
  H 4.984556 -2.427716 -3.402653
  H 5.224544 -0.874939 -4.133795
  H 2.773127 -0.338572 -3.732105
  H 2.567602 -1.990857 -3.102301
  H 6.903351 -1.081905 -1.300634
 29
 9.994883
  C 0.917348 0.238152 0.395168
  C 2.389006 0.248997 0.365995
  C 3.191024 0.653604 1.539595
  C 2.442562 1.049634 2.807937
  C 3.425990 1.442408 3.906068
  C 2.999350 -0.146313 -0.821439
  C 4.377570 -0.154067 -1.044920
  C 5.093457 -0.654250 -2.120654
  C 4.655559 -1.409274 -3.317490
  C 3.177994 -1.606108 -3.611907
  H 3.080235 -2.184326 -4.527549
  O 6.416403 -0.378278 -2.121861
  H 0.505761 0.444159 1.375056
  H 0.538992 -0.719808 0.037588
  H 0.537016 0.981168 -0.309066
  H 3.829142 1.493465 1.240342
  H 3.882719 -0.159247 1.785857
  H 1.836040 0.216010 3.165202
  H 1.783576 1.896017 2.609535
  H 4.092911 0.617280 4.145470
  H 2.892092 1.715699 4.812583
  H 4.029132 2.295148 3.602347
  H 2.344140 -0.444397 -1.621844
  H 5.015716 0.325439 -0.313229
  H 5.136597 -2.393266 -3.251165
  H 5.142822 -0.926162 -4.173460
  H 2.675501 -0.655825 -3.769225
  H 2.686641 -2.160162 -2.817533
  H 6.986655 -0.962377 -1.603579
 29
 8.564729
  C 0.894669 0.437778 0.302082
  C 2.367683 0.405162 0.280135
  C 3.176388 0.655177 1.493297
  C 2.434306 0.936817 2.796194
  C 3.424175 1.183260 3.930958
  C 2.978113 0.111042 -0.936962
  C 4.360158 0.094267 -1.153090
  C 5.091611 -0.480292 -2.179430
  C 4.689472 -1.483676 -3.196213
  C 3.220803 -1.848589 -3.339324
  H 3.125106 -2.624026 -4.095326
  O 6.380520 -0.107030 -2.213167
  H 0.483447 0.582069 1.293069
  H 0.489892 -0.479401 -0.126682
  H 0.541126 1.241848 -0.346981
  H 3.841657 1.502033 1.284957
  H 3.844339 -0.198544 1.651362
  H 1.802537 0.087858 3.062745
  H 1.800435 1.818236 2.687416
  H 4.059928 0.315025 4.089020
  H 2.894545 1.384506 4.858736
  H 4.059123 2.039583 3.714887
  H 2.324238 -0.087858 -1.770752
  H 5.007214 0.595033 -0.441227
  H 5.255979 -2.399766 -2.986078
  H 5.078831 -1.126773 -4.156961
  H 2.632056 -0.997443 -3.667485
  H 2.819096 -2.237683 -2.408121
  H 7.026487 -0.815192 -2.065961
 29
 12.229247
  C 0.858112 0.584680 0.210192
  C 2.331029 0.554858 0.157212
  C 3.171175 0.675459 1.370370
  C 2.461806 0.737349 2.719391
  C 3.477672 0.855911 3.851840
  C 2.926823 0.389922 -1.081574
  C 4.313855 0.323120 -1.290003
  C 5.073086 -0.394130 -2.192780
  C 4.727404 -1.621929 -2.953393
  C 3.255681 -2.006261 -2.962626
  H 3.122752 -2.908432 -3.553570
  O 6.323671 0.072990 -2.297534
  H 0.469801 0.616481 1.220536
  H 0.442706 -0.281187 -0.305304
  H 0.492756 1.457398 -0.335115
  H 3.799377 1.566433 1.255007
  H 3.870049 -0.167362 1.390310
  H 1.868771 -0.165380 2.874735
  H 1.795449 1.600715 2.758134
  H 4.147508 -0.000889 3.865863
  H 2.970067 0.898825 4.812401
  H 4.073962 1.759441 3.747501
  H 2.280568 0.345130 -1.945706
  H 5.012913 1.008359 -0.819313
  H 5.323918 -2.454462 -2.566269
  H 5.062123 -1.445576 -3.981705
  H 2.652398 -1.223970 -3.410382
  H 2.896537 -2.201560 -1.955649
  H 7.028544 -0.571009 -2.117508
 29
 24.545240
  C 0.806366 0.705046 0.218692
  C 2.273355 0.626964 0.121524
  C 3.153046 0.661460 1.311988
  C 2.485427 0.661148 2.684604
  C 3.537554 0.686735 3.790775
  C 2.836273 0.501290 -1.141266
  C 4.205594 0.394556 -1.384931
  C 5.018615 -0.356526 -2.209544
  C 4.796653 -1.665461 -2.867331
  C 3.344440 -2.121218 -2.817119
  H 3.237942 -3.068945 -3.336990
  O 6.214622 0.249193 -2.335852
  H 0.448326 0.703634 1.240882
  H 0.347771 -0.125055 -0.319095
  H 0.456228 1.611069 -0.280284
  H 3.800438 1.540072 1.228955
  H 3.825721 -0.201889 1.260386
  H 1.872497 -0.233642 2.803746
  H 1.844524 1.538180 2.793333
  H 4.182243 -0.187378 3.735862
  H 3.057923 0.683185 4.767570
  H 4.152943 1.580270 3.724125
  H 2.178630 0.542962 -1.998543
  H 4.994456 1.123971 -1.125888
  H 5.442933 -2.421463 -2.417626
  H 5.104314 -1.537981 -3.910864
  H 2.700551 -1.398495 -3.306321
  H 3.012009 -2.249825 -1.790568
  H 6.983201 -0.255888 -2.020058
 29
 48.643260
  C 0.738978 0.865604 0.282110
  C 2.193930 0.686912 0.127031
  C 3.121906 0.603341 1.280731
  C 2.518765 0.625950 2.682916
  C 3.618663 0.532785 3.738699
  C 2.699846 0.576550 -1.159813
  C 4.047773 0.386509 -1.463671
  C 4.920829 -0.336709 -2.196001
  C 4.878819 -1.669487 -2.837325
  C 3.466055 -2.245377 -2.851710
  H 3.465633 -3.213394 -3.344606
  O 6.090780 0.408709 -2.254788
  H 0.419914 0.854323 1.317178
  H 0.201743 0.088002 -0.262696
  H 0.438475 1.813459 -0.167897
  H 3.837545 1.428513 1.200652
  H 3.711502 -0.313171 1.171621
  H 1.834607 -0.214316 2.812456
  H 1.959953 1.549878 2.841916
  H 4.182938 -0.390374 3.632157
  H 3.188327 0.546933 4.737258
  H 4.307480 1.371024 3.657622
  H 2.016226 0.721993 -1.989288
  H 5.032170 1.144147 -1.320342
  H 5.556134 -2.356805 -2.324065
  H 5.237002 -1.540799 -3.863560
  H 2.795891 -1.591098 -3.403274
  H 3.085123 -2.367340 -1.842328
  H 6.869837 -0.004743 -1.844685
 29
 62.406017
  C 0.699006 0.989564 0.339797
  C 2.139333 0.724463 0.120966
  C 3.107936 0.563223 1.240985
  C 2.550002 0.595822 2.661050
  C 3.671326 0.417696 3.679932
  C 2.588862 0.605758 -1.179354
  C 3.891030 0.362214 -1.547213
  C 4.810067 -0.303384 -2.204978
  C 4.926325 -1.662596 -2.786962
  C 3.583554 -2.385091 -2.794095
  H 3.697377 -3.376891 -3.221484
  O 5.953315 0.586856 -2.277210
  H 0.422902 0.978793 1.387080
  H 0.093488 0.255395 -0.192292
  H 0.436835 1.962427 -0.079483
  H 3.866221 1.349217 1.155664
  H 3.639646 -0.383338 1.094850
  H 1.820477 -0.204597 2.798099
  H 2.053425 1.548799 2.850727
  H 4.175655 -0.535531 3.538762
  H 3.272172 0.440172 4.691278
  H 4.406615 1.213952 3.590803
  H 1.885667 0.805404 -1.981555
  H 5.116797 1.254376 -1.570183
  H 5.655793 -2.251457 -2.223521
  H 5.302842 -1.560570 -3.808886
  H 2.856006 -1.838355 -3.386981
  H 3.198520 -2.489170 -1.783601
  H 6.766720 0.265957 -1.838719
 29
 54.537939
  C 0.657802 0.969552 0.388513
  C 2.097741 0.683066 0.151665
  C 3.087742 0.556377 1.266361
  C 2.554271 0.654167 2.692215
  C 3.690225 0.493579 3.699331
  C 2.528914 0.528291 -1.158109
  C 3.814304 0.292621 -1.541582
  C 4.767530 -0.311662 -2.189817
  C 4.928729 -1.643500 -2.842988
  C 3.596929 -2.380653 -2.950377
  H 3.744365 -3.346540 -3.427033
  O 5.955086 0.587178 -2.177471
  H 0.398673 0.986468 1.439942
  H 0.035828 0.230096 -0.117897
  H 0.398141 1.935634 -0.049925
  H 3.858674 1.323655 1.136224
  H 3.601542 -0.405616 1.153130
  H 1.812624 -0.126768 2.871969
  H 2.080061 1.624208 2.852843
  H 4.172529 -0.475129 3.588280
  H 3.309384 0.564805 4.715394
  H 4.439538 1.270435 3.565693
  H 1.812140 0.716523 -1.953039
  H 5.336352 1.225345 -1.614429
  H 5.642850 -2.255082 -2.283015
  H 5.351341 -1.480759 -3.839018
  H 2.888058 -1.810498 -3.544458
  H 3.169060 -2.545913 -1.965646
  H 6.715734 0.216568 -1.665863
 29
 45.217085
  C 0.660851 1.113901 0.364766
  C 2.082823 0.769876 0.108791
  C 3.068181 0.518141 1.203962
  C 2.540228 0.542465 2.635776
  C 3.669483 0.279736 3.628172
  C 2.504193 0.665490 -1.211274
  C 3.761028 0.362662 -1.624564
  C 4.721416 -0.258007 -2.209720
  C 4.960500 -1.644572 -2.681261
  C 3.678336 -2.468456 -2.638221
  H 3.873268 -3.477527 -2.990112
  O 5.926545 0.674242 -2.427709
  H 0.408186 1.086889 1.418094
  H 0.002335 0.426756 -0.168440
  H 0.441761 2.113093 -0.016249
  H 3.864744 1.266427 1.126997
  H 3.541523 -0.453146 1.023309
  H 1.770409 -0.220747 2.766001
  H 2.098471 1.515569 2.858899
  H 4.120844 -0.693958 3.451884
  H 3.291472 0.296626 4.647633
  H 4.443082 1.040018 3.543124
  H 1.792781 0.916365 -1.991073
  H 5.513321 1.427972 -1.952715
  H 5.723740 -2.128055 -2.067139
  H 5.329545 -1.593750 -3.708569
  H 2.915335 -2.025446 -3.272704
  H 3.290258 -2.526349 -1.625017
  H 6.765250 0.367014 -2.012658
 29
 41.748052
  C 0.645889 1.024302 0.339874
  C 2.083366 0.736103 0.096266
  C 3.069575 0.532453 1.201145
  C 2.533105 0.572893 2.629181
  C 3.660650 0.350848 3.633040
  C 2.516104 0.636105 -1.216259
  C 3.780662 0.378216 -1.615882
  C 4.769025 -0.216260 -2.190319
  C 4.936563 -1.615749 -2.694615
  C 3.626659 -2.392605 -2.644384
  H 3.778013 -3.402209 -3.016375
  O 6.030202 0.568017 -2.382368
  H 0.393667 1.026766 1.393574
  H 0.020503 0.286564 -0.164890
  H 0.381269 1.996530 -0.080112
  H 3.849987 1.295086 1.109797
  H 3.562503 -0.433476 1.043664
  H 1.779101 -0.204356 2.769576
  H 2.069319 1.540398 2.831105
  H 4.130877 -0.617639 3.477588
  H 3.275265 0.379156 4.649577
  H 4.420192 1.123679 3.538472
  H 1.798162 0.847754 -2.001227
  H 5.897393 1.401840 -1.877148
  H 5.687460 -2.142381 -2.100680
  H 5.288918 -1.561414 -3.727466
  H 2.869230 -1.911822 -3.257221
  H 3.253627 -2.454439 -1.625361
  H 6.832125 0.104392 -2.044235
 29
 41.311927
  C 0.629070 1.050292 0.318883
  C 2.063871 0.759993 0.061572
  C 3.052470 0.509390 1.154797
  C 2.525499 0.527843 2.586859
  C 3.652560 0.253942 3.578202
  C 2.491723 0.696245 -1.255988
  C 3.754519 0.455097 -1.665959
  C 4.760499 -0.137881 -2.208158
  C 4.941497 -1.567804 -2.624422
  C 3.664813 -2.377675 -2.432691
  H 3.827138 -3.407380 -2.739119
  O 6.008107 0.636746 -2.458153
  H 0.389063 1.060652 1.375492
  H -0.001595 0.306550 -0.170883
  H 0.358394 2.018383 -0.106152
  H 3.848616 1.257112 1.074970
  H 3.524365 -0.462660 0.971932
  H 1.752961 -0.233511 2.712585
  H 2.086822 1.501489 2.814097
  H 4.097886 -0.721704 3.396512
  H 3.273455 0.267151 4.597439
  H 4.430142 1.010229 3.497725
  H 1.769330 0.923655 -2.031955
  H 6.054677 1.409791 -1.852772
  H 5.741658 -2.027034 -2.038787
  H 5.223199 -1.586933 -3.680109
  H 2.854181 -1.966843 -3.028107
  H 3.357206 -2.373136 -1.390276
  H 6.807289 0.066755 -2.383216
 29
 43.913969
  C 0.635904 0.837979 0.317053
  C 2.097602 0.664714 0.104606
  C 3.070500 0.550769 1.234963
  C 2.509476 0.637540 2.651498
  C 3.628563 0.507009 3.680614
  C 2.564663 0.587631 -1.192906
  C 3.862393 0.432952 -1.561822
  C 4.821601 -0.168274 -2.182620
  C 4.885797 -1.545968 -2.780143
  C 3.551609 -2.274814 -2.682975
  H 3.634299 -3.263021 -3.127271
  O 6.144730 0.497698 -2.263586
  H 0.369022 0.878510 1.366197
  H 0.085939 0.018336 -0.147773
  H 0.293673 1.756785 -0.161785
  H 3.820128 1.339291 1.115719
  H 3.600913 -0.402528 1.132762
  H 1.783035 -0.160303 2.818489
  H 2.006557 1.595400 2.799334
  H 4.136834 -0.449367 3.579141
  H 3.226484 0.569815 4.689170
  H 4.359874 1.302936 3.559002
  H 1.846723 0.743190 -1.992237
  H 6.308529 1.035757 -1.457464
  H 5.648181 -2.140397 -2.270144
  H 5.159454 -1.446971 -3.833773
  H 2.773970 -1.729059 -3.210089
  H 3.247257 -2.387215 -1.645673
  H 6.865703 -0.139645 -2.463973
