22

C 0.896604 0.048492 0.276309
C 2.389213 0.05877 0.094108
C 3.237333 -0.012548 1.358129
H 2.736287210743835 -0.06581498208500441 2.30206530382999
C 2.990578 0.12709 -1.116643
C 2.347486 0.20469 -2.491881
C 0.836463 0.217242 -2.71428
H 0.6245590419675104 0.2763296736133621 -3.761421518323634
C 4.449855 0.132333 -1.209488
C 5.186473 0.194914 -2.318647
H 6.256398042371817 0.1956309581327203 -2.331291748977406
H 0.601986 -0.010274 1.317726
H 0.453063 -0.811742 -0.218184
H 0.453065 0.958896 -0.118272
H 3.884107 0.87033 1.388474
H 3.884112 -0.893237 1.28896
H 2.740197 -0.643704 -3.063259
H 2.740197 1.111985 -2.96419
H 0.380684 1.077191 -2.22573
H 0.380689 -0.692201 -2.325581
H 5.000315 0.07994 -0.280959
H 4.806058 0.251701 -3.324994
