 17
 0.000000
  C 0.997401 0.130734 0.372199
  C 2.468550 0.136803 0.394649
  C 3.182057 0.616892 1.590220
  H 2.495722 0.931399 2.369173
  C 3.143693 -0.318758 -0.734485
  C 4.533372 -0.375191 -0.876710
  C 5.117756 -0.839323 -2.034873
  H 4.509146 -1.177456 -2.866457
  O 6.388393 -0.925982 -2.265301
  H 0.562417 0.502155 1.294089
  H 0.628230 -0.878949 0.182568
  H 0.631714 0.730123 -0.463711
  H 3.832799 1.454550 1.336600
  H 3.830357 -0.164527 1.988150
  H 2.546590 -0.654978 -1.571253
  H 5.166963 -0.048204 -0.064294
  H 6.959536 -0.623645 -1.530803
 17
 -0.085522
  C 0.995693 0.113127 0.377651
  C 2.467002 0.118602 0.396557
  C 3.177444 0.647819 1.572781
  H 2.488009 0.968138 2.348528
  C 3.144475 -0.350486 -0.724201
  C 4.532836 -0.388200 -0.870688
  C 5.119766 -0.859383 -2.027408
  H 4.511604 -1.216921 -2.850237
  O 6.391663 -0.929207 -2.264787
  H 0.573691 0.297690 1.361005
  H 0.608555 -0.821610 -0.025308
  H 0.641058 0.899489 -0.294737
  H 3.805527 1.493052 1.290868
  H 3.848218 -0.107408 1.987837
  H 2.550370 -0.714187 -1.549839
  H 5.164870 -0.041154 -0.064405
  H 6.963604 -0.610215 -1.536237
 17
 -0.228536
  C 0.993784 0.090944 0.382801
  C 2.465027 0.105377 0.388894
  C 3.168867 0.684445 1.548272
  H 2.474991 1.009662 2.317599
  C 3.146800 -0.374906 -0.722136
  C 4.535936 -0.397770 -0.867889
  C 5.129085 -0.875554 -2.019387
  H 4.523148 -1.248605 -2.842787
  O 6.399885 -0.932792 -2.254891
  H 0.602327 0.067769 1.396250
  H 0.595058 -0.737081 -0.196152
  H 0.629810 1.014745 -0.078550
  H 3.773160 1.538027 1.238862
  H 3.859409 -0.039224 1.979953
  H 2.556691 -0.764226 -1.541293
  H 5.162014 -0.034120 -0.067394
  H 6.970030 -0.603092 -1.524790
 17
 -0.282701
  C 0.995088 0.062095 0.392201
  C 2.463605 0.112846 0.370695
  C 3.156799 0.733908 1.514188
  H 2.458297 1.046385 2.274529
  C 3.148756 -0.374990 -0.729275
  C 4.540708 -0.400609 -0.867248
  C 5.139054 -0.879398 -2.012367
  H 4.541126 -1.247359 -2.833484
  O 6.413661 -0.962004 -2.230666
  H 0.654755 -0.179852 1.398813
  H 0.589201 -0.650269 -0.319766
  H 0.595427 1.052067 0.167252
  H 3.724834 1.602333 1.183406
  H 3.876778 0.042390 1.955940
  H 2.561471 -0.762137 -1.555954
  H 5.162285 -0.038558 -0.063451
  H 6.976877 -0.648619 -1.497069
 17
 0.127903
  C 0.992770 0.047432 0.388533
  C 2.459385 0.132026 0.348666
  C 3.138751 0.782075 1.482167
  H 2.436085 1.073327 2.254882
  C 3.161800 -0.356939 -0.747287
  C 4.549805 -0.404607 -0.867110
  C 5.158940 -0.906965 -1.999185
  H 4.561932 -1.299045 -2.822656
  O 6.430913 -1.004977 -2.199382
  H 0.731587 -0.439534 1.336305
  H 0.557853 -0.519495 -0.441198
  H 0.559439 1.039411 0.454476
  H 3.677873 1.680311 1.142479
  H 3.876233 0.126886 1.926118
  H 2.572330 -0.731911 -1.575759
  H 5.166152 -0.045858 -0.052928
  H 6.991438 -0.660047 -1.472158
 17
 2.654068
  C 0.979160 0.033608 0.398288
  C 2.443382 0.138475 0.320168
  C 3.121965 0.836064 1.433060
  H 2.416491 1.143808 2.202931
  C 3.163132 -0.349753 -0.764656
  C 4.555246 -0.445520 -0.844767
  C 5.179118 -0.924977 -1.978225
  H 4.589780 -1.199536 -2.866641
  O 6.450780 -1.030392 -2.157199
  H 0.868189 -0.621626 1.279071
  H 0.518220 -0.433160 -0.472984
  H 0.500186 0.954158 0.719804
  H 3.641752 1.719483 1.058443
  H 3.875510 0.197882 1.882879
  H 2.594990 -0.673668 -1.632272
  H 5.156013 -0.095534 -0.023618
  H 7.003854 -0.734668 -1.394685
 17
 8.556659
  C 0.969876 0.058485 0.368464
  C 2.419629 0.119446 0.312020
  C 3.112559 0.864130 1.394739
  H 2.427238 1.182355 2.167390
  C 3.137529 -0.367208 -0.766180
  C 4.545797 -0.452813 -0.828307
  C 5.187641 -0.878925 -1.975543
  H 4.621255 -1.174690 -2.848010
  O 6.464077 -1.009941 -2.133304
  H 1.056028 -0.712388 1.178831
  H 0.453447 -0.339452 -0.497621
  H 0.476939 0.852137 0.915773
  H 3.581125 1.758249 0.974326
  H 3.907305 0.279274 1.852402
  H 2.606529 -0.695663 -1.641409
  H 5.143870 -0.187311 0.020338
  H 6.992718 -0.778730 -1.336253
 17
 19.773931
  C 0.983470 0.048596 0.376082
  C 2.410524 0.139905 0.333023
  C 3.098366 0.966140 1.351744
  H 2.410646 1.282621 2.134717
  C 3.137984 -0.333110 -0.774287
  C 4.527186 -0.504470 -0.815726
  C 5.189353 -0.829460 -1.974552
  H 4.650107 -0.962295 -2.909371
  O 6.468789 -1.041615 -2.099782
  H 1.337011 -0.820677 1.078783
  H 0.475310 -0.362603 -0.480166
  H 0.381819 0.629733 1.061447
  H 3.497800 1.851921 0.868858
  H 3.936435 0.464300 1.826754
  H 2.588020 -0.589750 -1.669289
  H 5.098032 -0.420724 0.103770
  H 6.964646 -0.991186 -1.256742
 17
 33.205850
  C 0.950738 0.081606 0.347028
  C 2.372962 0.110997 0.333561
  C 3.087933 0.922453 1.363060
  H 2.412456 1.234531 2.156741
  C 3.134037 -0.314254 -0.781791
  C 4.514277 -0.481510 -0.804678
  C 5.165292 -0.931079 -1.928450
  H 4.633186 -1.142671 -2.845617
  O 6.461454 -1.091431 -2.050858
  H 1.615577 -0.822523 0.978319
  H 0.421266 -0.250394 -0.535321
  H 0.380368 0.583091 1.115534
  H 3.489033 1.819766 0.888932
  H 3.913541 0.392246 1.815140
  H 2.592403 -0.525516 -1.698036
  H 5.102201 -0.194232 0.052331
  H 6.963687 -0.841511 -1.249083
 17
 41.649861
  C 0.931767 0.172904 0.274716
  C 2.357166 0.068656 0.366431
  C 3.069270 0.930113 1.395556
  H 2.408944 1.178919 2.217848
  C 3.122012 -0.378136 -0.768437
  C 4.501975 -0.475271 -0.809935
  C 5.163894 -0.892276 -1.943012
  H 4.627382 -1.149896 -2.843610
  O 6.460432 -1.054702 -2.061776
  H 1.909787 -0.822874 0.990150
  H 0.412247 -0.146261 -0.616261
  H 0.351797 0.584933 1.076842
  H 3.384612 1.857967 0.929481
  H 3.950901 0.436535 1.797415
  H 2.577682 -0.648665 -1.664297
  H 5.083377 -0.239154 0.068894
  H 6.955362 -0.841365 -1.247438
 17
 41.808361
  C 0.930696 0.225827 0.228495
  C 2.345414 0.004896 0.399929
  C 3.041718 0.925747 1.419799
  H 2.370679 1.157257 2.241410
  C 3.127447 -0.416395 -0.756606
  C 4.499835 -0.508910 -0.797007
  C 5.162939 -0.904807 -1.943559
  H 4.616492 -1.146880 -2.847002
  O 6.452188 -1.017633 -2.081807
  H 2.132034 -0.880274 1.055916
  H 0.431854 -0.011300 -0.694193
  H 0.340965 0.599850 1.044260
  H 3.315852 1.856442 0.930821
  H 3.938320 0.470659 1.823201
  H 2.575915 -0.665674 -1.652175
  H 5.084819 -0.263572 0.076622
  H 6.962009 -0.797298 -1.277233
 17
 42.148253
  C 0.926303 0.182691 0.255239
  C 2.340186 -0.044714 0.404721
  C 3.002697 0.972305 1.391976
  H 2.352041 1.146414 2.242180
  C 3.134137 -0.391673 -0.770314
  C 4.498518 -0.552775 -0.786352
  C 5.174700 -0.880931 -1.948651
  H 4.639611 -1.007534 -2.882458
  O 6.456719 -1.047837 -2.066019
  H 2.360844 -0.881900 1.135161
  H 0.438497 0.073441 -0.697181
  H 0.328145 0.468543 1.098757
  H 3.149869 1.913252 0.870546
  H 3.962422 0.617652 1.749235
  H 2.596484 -0.533702 -1.698563
  H 5.071716 -0.420469 0.120990
  H 6.960165 -0.926950 -1.235976
 17
 48.715806
  C 0.911653 0.125863 0.244358
  C 2.316538 -0.006628 0.329204
  C 2.988526 0.962581 1.415113
  H 2.355322 1.078013 2.286655
  C 3.131983 -0.372930 -0.803175
  C 4.505707 -0.520493 -0.806996
  C 5.185471 -0.880405 -1.949631
  H 4.660784 -1.065856 -2.879617
  O 6.477306 -1.061510 -2.051398
  H 2.504039 -0.667196 1.213028
  H 0.390099 -0.058006 -0.676386
  H 0.334171 0.445415 1.089856
  H 3.068435 1.938133 0.938503
  H 3.986125 0.656439 1.705428
  H 2.608418 -0.552417 -1.732101
  H 5.078151 -0.351966 0.094026
  H 6.961062 -0.915612 -1.215344
 17
 54.623850
  C 0.925676 0.165736 0.182529
  C 2.299225 0.032455 0.270004
  C 3.019712 0.870493 1.500286
  H 2.383288 1.017783 2.374426
  C 3.111288 -0.388611 -0.819701
  C 4.498401 -0.491653 -0.831650
  C 5.179137 -0.897065 -1.947158
  H 4.664044 -1.152973 -2.864441
  O 6.491237 -1.021741 -2.052544
  H 2.570755 -0.438025 1.286974
  H 0.402584 -0.043659 -0.726813
  H 0.340457 0.503693 1.010203
  H 3.136508 1.847471 1.030304
  H 4.013644 0.539831 1.792393
  H 2.587940 -0.637501 -1.732501
  H 5.074022 -0.249277 0.049209
  H 6.961169 -0.789693 -1.226817
