 20
 0.000000
  C 1.007712 -0.071118 0.048444
  C 2.503867 -0.082259 0.026573
  C 3.219102 -0.595283 -0.980579
  C 4.656991 -0.606530 -1.002657
  C 5.376423 -1.122096 -2.014796
  C 6.814811 -1.131582 -2.033419
  C 7.534336 -1.642940 -3.037310
  C 9.024562 -1.660993 -3.072746
  H 0.645840 0.395231 0.963957
  H 0.611997 -1.085999 0.009880
  H 0.611998 0.494397 -0.795159
  H 3.004661 0.353146 0.881349
  H 2.707261 -1.028644 -1.831329
  H 5.162404 -0.171783 -0.149182
  H 4.872332 -1.557110 -2.868806
  H 7.320919 -0.696878 -1.180024
  H 7.037960 -2.079871 -3.895062
  H 9.456629 -1.207403 -2.182276
  H 9.384795 -1.114713 -3.945992
  H 9.384800 -2.688551 -3.144315
 20
 -0.030735
  C 0.997058 -0.026415 0.017278
  C 2.488990 -0.130624 0.030727
  C 3.211950 -0.578594 -0.999366
  C 4.644149 -0.679330 -0.990490
  C 5.372368 -1.123042 -2.030323
  C 6.806672 -1.213760 -2.007286
  C 7.558268 -1.564346 -3.052454
  C 9.044704 -1.655881 -3.030528
  H 0.624084 0.366008 0.959831
  H 0.545242 -1.003719 -0.151511
  H 0.665728 0.632697 -0.784130
  H 2.991155 0.179916 0.936888
  H 2.710484 -0.889448 -1.907171
  H 5.144931 -0.373773 -0.080753
  H 4.875124 -1.425195 -2.943448
  H 7.285854 -0.969980 -1.067024
  H 7.090971 -1.797483 -3.998854
  H 9.440345 -1.399568 -2.050243
  H 9.476842 -0.981108 -3.770676
  H 9.363912 -2.667760 -3.284754
 20
 0.441107
  C 1.016930 -0.004304 0.047812
  C 2.509028 -0.019880 -0.008415
  C 3.212297 -0.659954 -0.947718
  C 4.648860 -0.674155 -1.006852
  C 5.356374 -1.302750 -1.963602
  C 6.795045 -1.270182 -2.007329
  C 7.539547 -1.618342 -3.058079
  C 9.027789 -1.565776 -3.093320
  H 0.662391 0.581756 0.890069
  H 0.625467 -1.019145 0.142626
  H 0.603397 0.420506 -0.867744
  H 3.031780 0.523724 0.766735
  H 2.691687 -1.205207 -1.724401
  H 5.169740 -0.140090 -0.223506
  H 4.845448 -1.827470 -2.760643
  H 7.285863 -0.913937 -1.110213
  H 7.063571 -1.947710 -3.970563
  H 9.429773 -1.201584 -2.151810
  H 9.364208 -0.911671 -3.894520
  H 9.436036 -2.559986 -3.289834
 20
 2.096910
  C 1.020126 0.028626 -0.006893
  C 2.513297 0.038742 -0.075075
  C 3.225111 -0.722339 -0.910501
  C 4.661018 -0.711619 -0.981562
  C 5.376199 -1.459398 -1.838351
  C 6.818317 -1.390702 -1.924510
  C 7.510592 -1.566179 -3.048028
  C 8.994633 -1.481366 -3.150301
  H 0.656813 0.731382 0.737252
  H 0.654618 -0.965722 0.249634
  H 0.590769 0.294253 -0.971632
  H 3.028223 0.711251 0.599882
  H 2.712905 -1.392989 -1.590796
  H 5.174353 -0.043092 -0.300011
  H 4.872397 -2.126845 -2.526336
  H 7.343362 -1.154911 -1.007107
  H 6.985696 -1.752075 -3.975347
  H 9.440823 -1.253307 -2.186580
  H 9.282229 -0.708913 -3.864197
  H 9.401437 -2.426703 -3.511290
 20
 4.825368
  C 1.031200 0.058661 -0.075901
  C 2.523741 0.087318 -0.162999
  C 3.243743 -0.778191 -0.879869
  C 4.680927 -0.751839 -0.965994
  C 5.401494 -1.601631 -1.707046
  C 6.853238 -1.525927 -1.836168
  C 7.467262 -1.491757 -3.012040
  C 8.940994 -1.386686 -3.206975
  H 0.660554 0.857778 0.558424
  H 0.688935 -0.892700 0.331741
  H 0.586066 0.167592 -1.067128
  H 3.029731 0.854825 0.404682
  H 2.741267 -1.554192 -1.446427
  H 5.183802 0.028657 -0.410582
  H 4.904616 -2.400980 -2.243162
  H 7.426947 -1.475846 -0.918546
  H 6.864921 -1.501100 -3.912395
  H 9.458245 -1.331213 -2.251614
  H 9.184331 -0.500159 -3.792762
  H 9.310021 -2.253836 -3.755655
 20
 8.003091
  C 1.046271 0.082837 -0.219136
  C 2.541044 0.102485 -0.247253
  C 3.287444 -0.839840 -0.826318
  C 4.726080 -0.806700 -0.881162
  C 5.471890 -1.717668 -1.514310
  C 6.921329 -1.615620 -1.711513
  C 7.396661 -1.421275 -2.933563
  C 8.833860 -1.282706 -3.302755
  H 0.651618 0.976818 0.256368
  H 0.682892 -0.786161 0.325952
  H 0.646208 0.023832 -1.234626
  H 3.025999 0.929045 0.253267
  H 2.807244 -1.693845 -1.292891
  H 5.204120 0.070264 -0.453655
  H 5.020848 -2.640485 -1.844602
  H 7.571070 -1.718904 -0.850237
  H 6.652524 -1.340164 -3.731080
  H 9.466140 -1.345641 -2.423007
  H 9.007649 -0.326261 -3.792973
  H 9.122012 -2.072076 -4.001456
 20
 14.824499
  C 1.072523 0.080970 -0.392238
  C 2.563180 0.105266 -0.318836
  C 3.344823 -0.860147 -0.805924
  C 4.782416 -0.836343 -0.749397
  C 5.568171 -1.732789 -1.356702
  C 7.018188 -1.639951 -1.554920
  C 7.342068 -1.424098 -2.827585
  C 8.689672 -1.227484 -3.422913
  H 0.646997 0.985275 0.030030
  H 0.675580 -0.772585 0.151088
  H 0.739615 -0.008382 -1.425696
  H 3.014651 0.953618 0.180923
  H 2.893132 -1.741961 -1.250681
  H 5.234640 0.037381 -0.286048
  H 5.148362 -2.720214 -1.532719
  H 7.712251 -1.765581 -0.742696
  H 6.434276 -1.344808 -3.438157
  H 9.459042 -1.317782 -2.665307
  H 8.757242 -0.241305 -3.879887
  H 8.876243 -1.969700 -4.204683
 20
 23.034534
  C 1.079518 0.088136 -0.424355
  C 2.571552 0.077374 -0.284610
  C 3.370699 -0.793435 -0.906543
  C 4.797349 -0.836406 -0.755710
  C 5.593998 -1.726203 -1.371079
  C 7.036325 -1.646546 -1.497736
  C 7.327895 -1.424476 -2.788436
  C 8.641354 -1.232755 -3.441391
  H 0.640025 0.892508 0.168818
  H 0.661107 -0.851014 -0.069436
  H 0.779168 0.221388 -1.462207
  H 3.008968 0.797888 0.400355
  H 2.935052 -1.555674 -1.532685
  H 5.256794 -0.034670 -0.179461
  H 5.152463 -2.708917 -1.542384
  H 7.721592 -1.722246 -0.672306
  H 6.361722 -1.380410 -3.328089
  H 9.437581 -1.280569 -2.707292
  H 8.679031 -0.288178 -3.967798
  H 8.811191 -2.030952 -4.177695
 20
 42.702310
  C 1.150241 0.169809 -0.548060
  C 2.627134 0.074520 -0.335064
  C 3.399795 -0.878712 -0.860542
  C 4.820905 -0.974061 -0.668572
  C 5.600950 -1.795953 -1.381896
  C 7.064047 -1.747204 -1.393393
  C 7.305941 -1.376316 -2.655632
  C 8.512789 -1.143367 -3.484804
  H 0.736862 1.047021 -0.058735
  H 0.657484 -0.713574 -0.132936
  H 0.903937 0.178865 -1.606152
  H 3.073050 0.834743 0.280167
  H 2.945991 -1.658393 -1.443245
  H 5.287763 -0.204007 -0.071070
  H 5.253891 -2.807985 -1.540175
  H 7.742517 -1.991118 -0.588881
  H 6.200528 -1.263709 -2.987524
  H 9.403029 -1.302856 -2.900464
  H 8.525663 -0.094007 -3.823754
  H 8.536506 -1.772946 -4.362061
 20
 72.048665
  C 1.156385 0.153872 -0.461674
  C 2.652184 0.115752 -0.352722
  C 3.414839 -0.780946 -0.997845
  C 4.817065 -0.952779 -0.774959
  C 5.590097 -1.829647 -1.507210
  C 7.048548 -1.862338 -1.449105
  C 7.358055 -1.421376 -2.664694
  C 8.575015 -1.094408 -3.403566
  H 0.740856 1.003368 0.075146
  H 0.717908 -0.760510 -0.050429
  H 0.848462 0.214965 -1.510637
  H 3.123041 0.858910 0.277476
  H 2.922495 -1.528739 -1.600491
  H 5.315074 -0.206486 -0.177020
  H 5.117323 -2.798456 -1.708293
  H 7.642423 -2.141628 -0.598088
  H 5.918221 -1.337947 -2.874603
  H 9.460907 -1.361330 -2.807370
  H 8.605793 -0.024554 -3.624273
  H 8.606729 -1.633376 -4.344863
 20
 81.596988
  C 1.140262 0.185725 -0.393269
  C 2.626363 0.107634 -0.290426
  C 3.377423 -0.769394 -1.002304
  C 4.760338 -0.926655 -0.866188
  C 5.526693 -1.826003 -1.685550
  C 7.015805 -1.854919 -1.514243
  C 7.473919 -1.424451 -2.660320
  C 8.710763 -1.104841 -3.372631
  H 0.745687 0.990504 0.221532
  H 0.680254 -0.749555 -0.070013
  H 0.832638 0.354739 -1.426731
  H 3.114327 0.775984 0.404291
  H 2.871444 -1.436068 -1.692051
  H 5.295256 -0.231106 -0.236196
  H 5.087278 -2.812734 -1.826335
  H 7.530545 -2.164964 -0.611050
  H 5.624047 -1.394225 -2.785827
  H 9.585944 -1.313702 -2.748288
  H 8.726931 -0.049438 -3.646249
  H 8.788974 -1.693074 -4.287561
 20
 79.776692
  C 1.145527 0.221888 -0.379476
  C 2.626585 0.095737 -0.258089
  C 3.367224 -0.755480 -1.022727
  C 4.732578 -0.968827 -0.874962
  C 5.493465 -1.856503 -1.749601
  C 6.990792 -1.823876 -1.566621
  C 7.545343 -1.425086 -2.668183
  C 8.775807 -1.092554 -3.372593
  H 0.759237 0.979067 0.297035
  H 0.654655 -0.725989 -0.149608
  H 0.862457 0.489553 -1.398865
  H 3.122038 0.699372 0.488163
  H 2.849645 -1.354979 -1.764055
  H 5.281019 -0.342649 -0.186001
  H 5.116982 -2.878903 -1.788792
  H 7.441390 -2.101469 -0.616218
  H 5.448631 -1.484621 -2.817374
  H 9.652818 -1.233737 -2.728902
  H 8.754459 -0.051570 -3.697268
  H 8.892279 -1.722877 -4.255567
 20
 76.958269
  C 1.156464 0.277847 -0.376100
  C 2.621590 0.063188 -0.206415
  C 3.356911 -0.742347 -1.028561
  C 4.700009 -1.035577 -0.853761
  C 5.455921 -1.893514 -1.774380
  C 6.961672 -1.769352 -1.614601
  C 7.582513 -1.421572 -2.688179
  C 8.811814 -1.075364 -3.378150
  H 0.771719 0.968183 0.369720
  H 0.611940 -0.664468 -0.285993
  H 0.936931 0.679946 -1.367024
  H 3.109852 0.555140 0.621831
  H 2.844663 -1.230229 -1.850783
  H 5.244145 -0.523917 -0.073440
  H 5.177563 -2.947944 -1.715584
  H 7.369423 -1.968338 -0.623275
  H 5.271087 -1.586587 -2.825187
  H 9.669998 -1.087828 -2.694262
  H 8.734729 -0.075631 -3.808165
  H 9.007420 -1.781379 -4.186452
 20
 75.979087
  C 1.137093 0.277944 -0.329267
  C 2.589491 0.010720 -0.145155
  C 3.330092 -0.723483 -1.031317
  C 4.670218 -1.032170 -0.876610
  C 5.424915 -1.849171 -1.841096
  C 6.930284 -1.651879 -1.713764
  C 7.626857 -1.437360 -2.772507
  C 8.909968 -1.144632 -3.382065
  H 0.740682 0.874634 0.489574
  H 0.570788 -0.657599 -0.384399
  H 0.959725 0.814047 -1.264574
  H 3.066558 0.400603 0.742494
  H 2.827802 -1.113333 -1.906304
  H 5.202561 -0.626328 -0.028071
  H 5.235374 -2.917652 -1.720796
  H 7.294962 -1.694011 -0.684682
  H 5.131087 -1.593410 -2.871746
  H 9.678848 -0.969553 -2.622654
  H 8.837567 -0.250545 -4.004639
  H 9.231489 -1.976563 -4.011183
 20
 58.218352
  C 1.791028 0.708473 -0.880071
  C 2.779851 -0.269608 -0.336885
  C 3.716893 -0.875093 -1.089115
  C 4.632877 -1.840764 -0.609390
  C 5.639120 -2.394413 -1.394864
  C 7.128511 -1.493785 -1.124589
  C 7.735278 -0.955714 -2.077401
  C 7.832075 -0.707011 -3.505200
  H 1.145985 1.090302 -0.095160
  H 1.165789 0.241989 -1.642683
  H 2.300050 1.550662 -1.349695
  H 2.718803 -0.498995 0.719024
  H 3.767251 -0.640273 -2.146514
  H 4.633597 -2.034058 0.455319
  H 6.010715 -3.369421 -1.100955
  H 7.329940 -1.528875 -0.078912
  H 5.473713 -2.317353 -2.461904
  H 8.643115 -0.007816 -3.708444
  H 6.907229 -0.277828 -3.898211
  H 8.044544 -1.640158 -4.033109
