 22
 0.000000
  C 1.000527 0.171371 0.477925
  C 2.458519 0.132496 0.380220
  H 3.058225 0.467590 1.213863
  C 3.039570 -0.333250 -0.779531
  C 4.423791 -0.421161 -0.999313
  C 5.080048 -0.871664 -2.121691
  C 4.608338 -1.387678 -3.407487
  C 3.128770 -1.518231 -3.734244
  C 2.938586 -2.082617 -5.140634
  H 6.162974 -0.853749 -2.076964
  H 0.649916 0.554441 1.431666
  H 0.587910 -0.828397 0.325033
  H 0.587319 0.787255 -0.324029
  H 2.368485 -0.648303 -1.563203
  H 5.053602 -0.092214 -0.180345
  H 5.086410 -2.370086 -3.534610
  H 5.087230 -0.766351 -4.178504
  H 2.645196 -0.541022 -3.689250
  H 2.644519 -2.192843 -3.026294
  H 3.387707 -1.432682 -5.887968
  H 1.879970 -2.174059 -5.369552
  H 3.387133 -3.069151 -5.231171
 22
 8.856240
  C 1.089695 0.259430 0.697310
  C 2.486730 0.081694 0.253807
  H 3.237125 0.374419 0.981683
  C 2.794944 -0.400066 -0.945207
  C 4.162562 -0.431617 -1.025541
  C 4.957036 -0.859372 -2.091421
  C 4.607970 -1.384292 -3.398857
  C 3.163497 -1.553022 -3.820497
  C 3.075156 -2.120008 -5.234086
  H 6.025500 -0.796918 -1.936201
  H 1.022006 0.663528 1.703659
  H 0.565281 -0.701790 0.645416
  H 0.564953 0.917753 -0.004824
  H 2.085036 -0.703550 -1.699630
  H 4.730428 -0.087924 -0.170169
  H 5.132716 -2.344426 -3.501931
  H 5.133184 -0.762518 -4.137242
  H 2.653784 -0.588053 -3.802025
  H 2.653172 -2.237320 -3.140354
  H 3.553664 -1.458587 -5.952748
  H 2.035894 -2.238068 -5.529755
  H 3.552779 -3.095168 -5.296381
 22
 38.169030
  C 1.133474 0.299807 0.796968
  C 2.553421 0.048073 0.169809
  H 3.303838 0.329787 0.869777
  C 2.661613 -0.438981 -1.040595
  C 4.035086 -0.427875 -1.015936
  C 4.882752 -0.844328 -2.053536
  C 4.596182 -1.374983 -3.375333
  C 3.170054 -1.569500 -3.860936
  C 3.149286 -2.137836 -5.279021
  H 5.950056 -0.764299 -1.855155
  H 1.203595 0.702325 1.799303
  H 0.582788 -0.625944 0.806355
  H 0.582533 0.974849 0.163695
  H 1.934016 -0.729176 -1.760420
  H 4.623780 -0.092382 -0.181710
  H 5.143952 -2.328159 -3.461699
  H 5.144882 -0.745602 -4.095773
  H 2.643503 -0.612949 -3.863068
  H 2.643614 -2.262735 -3.201605
  H 3.645896 -1.467801 -5.978073
  H 2.124875 -2.273304 -5.617606
  H 3.645450 -3.105353 -5.321889
 22
 78.437858
  C 1.160673 0.332682 0.838164
  C 2.632343 0.027219 0.104760
  H 3.332214 0.323427 0.853760
  C 2.587438 -0.498714 -1.084436
  C 3.969617 -0.412802 -0.994966
  C 4.840399 -0.821673 -2.029495
  C 4.583442 -1.369187 -3.360114
  C 3.171402 -1.568682 -3.882362
  C 3.191259 -2.139823 -5.291749
  H 5.895985 -0.746092 -1.814644
  H 1.303121 0.730705 1.833431
  H 0.625809 -0.620179 0.868851
  H 0.588824 1.034976 0.222863
  H 1.841958 -0.796877 -1.776801
  H 4.609971 -0.105876 -0.185604
  H 5.133714 -2.315886 -3.435125
  H 5.142097 -0.735672 -4.062620
  H 2.639849 -0.617778 -3.902921
  H 2.634170 -2.263573 -3.238313
  H 3.701166 -1.470654 -5.978187
  H 2.178022 -2.282322 -5.656143
  H 3.693415 -3.102394 -5.317364
 22
 105.914326
  C 1.113255 0.349208 0.825292
  C 2.738751 0.000684 0.033866
  H 3.359248 0.336490 0.839788
  C 2.560381 -0.568532 -1.104093
  C 4.011147 -0.409564 -0.983348
  C 4.843822 -0.800126 -1.990398
  C 4.587510 -1.360435 -3.343394
  C 3.165235 -1.557691 -3.856234
  C 3.183224 -2.124754 -5.281354
  H 5.912078 -0.727245 -1.793146
  H 1.306322 0.749672 1.803984
  H 0.634539 -0.609301 0.864849
  H 0.611177 1.042562 0.179325
  H 1.818321 -0.888481 -1.789093
  H 4.660989 -0.134247 -0.167997
  H 5.123171 -2.319968 -3.401338
  H 5.119522 -0.693652 -4.038512
  H 2.633792 -0.602280 -3.870547
  H 2.635171 -2.268618 -3.215507
  H 3.692809 -1.447652 -5.964020
  H 2.170423 -2.269816 -5.646022
  H 3.693341 -3.085445 -5.311581
 22
 121.158553
  C 0.956607 0.405929 0.943227
  C 2.856033 -0.020603 -0.009197
  H 3.318585 0.379161 0.868187
  C 2.567184 -0.585775 -1.110456
  C 4.092409 -0.425637 -0.998924
  C 4.888872 -0.820636 -2.013638
  C 4.627619 -1.382194 -3.375255
  C 3.195867 -1.586398 -3.864291
  C 3.191577 -2.119518 -5.290897
  H 5.950852 -0.736122 -1.845404
  H 1.215347 0.818830 1.898773
  H 0.535896 -0.585207 0.959189
  H 0.517079 1.089189 0.247751
  H 1.830609 -0.902122 -1.801040
  H 4.763771 -0.161059 -0.182532
  H 5.154488 -2.330634 -3.427894
  H 5.125857 -0.700075 -4.066584
  H 2.662914 -0.631647 -3.861930
  H 2.672686 -2.302032 -3.229475
  H 3.689655 -1.421399 -5.968974
  H 2.168559 -2.256462 -5.644397
  H 3.704293 -3.078580 -5.350515
 22
 124.187408
  C 0.733691 0.451892 1.106681
  C 2.962406 -0.036154 -0.023244
  H 3.367805 0.406741 0.855357
  C 2.628712 -0.546095 -1.127030
  C 4.200188 -0.430636 -1.026998
  C 4.952892 -0.822754 -2.064916
  C 4.654402 -1.391673 -3.413147
  C 3.215855 -1.604856 -3.873339
  C 3.196087 -2.125208 -5.307900
  H 6.023910 -0.766475 -1.912374
  H 1.039736 0.854947 2.050021
  H 0.355966 -0.551781 1.097200
  H 0.333184 1.132238 0.384548
  H 1.908694 -0.835322 -1.850557
  H 4.878324 -0.200672 -0.205809
  H 5.191532 -2.342784 -3.481300
  H 5.145377 -0.724811 -4.129081
  H 2.682764 -0.651478 -3.862245
  H 2.713588 -2.328257 -3.234277
  H 3.689873 -1.428438 -5.981038
  H 2.175821 -2.280744 -5.648832
  H 3.719506 -3.077604 -5.379644
 22
 118.630325
  C 0.230686 0.639620 1.175388
  C 3.261197 -0.029311 -0.061975
  H 3.343104 0.567375 0.801681
  C 2.915263 -0.876378 -0.905274
  C 4.512126 -0.507020 -1.032005
  C 5.135602 -0.909835 -2.142919
  C 4.701990 -1.408679 -3.478693
  C 3.226935 -1.593936 -3.836223
  C 3.102099 -2.000331 -5.307360
  H 6.226137 -0.862132 -2.087140
  H 0.516311 1.222399 2.021679
  H 0.093738 -0.413938 1.278165
  H -0.040711 1.130413 0.255499
  H 2.371541 -1.497702 -1.573194
  H 5.194008 -0.295683 -0.201527
  H 5.219814 -2.349294 -3.656319
  H 5.141332 -0.696908 -4.192913
  H 2.677892 -0.664407 -3.692958
  H 2.787492 -2.390734 -3.244083
  H 3.525941 -1.237081 -5.959301
  H 2.053527 -2.133870 -5.581061
  H 3.624236 -2.941875 -5.499936
 22
 104.572473
  C 0.302655 0.359377 0.139019
  C 3.503822 -0.094325 -0.207126
  H 3.374421 0.820852 0.316092
  C 3.448462 -1.350649 -0.427834
  C 4.842421 -0.627436 -0.868499
  C 5.293160 -0.992518 -2.100244
  C 4.607555 -1.354309 -3.346537
  C 3.084209 -1.352999 -3.433448
  C 2.652215 -1.579628 -4.881359
  H 6.371025 -0.941910 -2.213062
  H 0.302877 1.276525 0.693882
  H 0.233543 -0.567573 0.666900
  H 0.129441 0.380052 -0.916772
  H 3.023414 -2.282741 -0.703532
  H 5.598764 -0.420924 -0.118456
  H 4.994992 -2.317874 -3.695185
  H 4.998304 -0.633364 -4.076996
  H 2.683879 -0.396669 -3.091333
  H 2.659163 -2.154318 -2.831245
  H 3.039871 -0.794477 -5.533615
  H 1.565208 -1.580802 -4.960682
  H 3.017069 -2.538399 -5.250916
