 23
 0.000000
  H 1.409653 0.150220 0.428438
  C 2.488306 0.139963 0.400973
  C 3.237877 0.611232 1.570471
  H 2.609363 0.939816 2.388359
  C 3.067172 -0.327844 -0.763002
  C 4.445299 -0.414427 -0.979874
  C 5.124691 -0.868325 -2.112070
  C 4.616430 -1.387882 -3.408126
  C 3.125470 -1.503776 -3.698572
  C 2.910966 -2.066257 -5.101660
  O 6.439963 -0.864490 -2.102942
  H 3.892749 1.436361 1.279900
  H 3.894169 -0.184131 1.932065
  H 2.396331 -0.641833 -1.543455
  H 5.068101 -0.083283 -0.154963
  H 5.074913 -2.375537 -3.537354
  H 5.075631 -0.763525 -4.183846
  H 2.650108 -0.523668 -3.646688
  H 2.649466 -2.176272 -2.984110
  H 3.353324 -1.418134 -5.854472
  H 1.848163 -2.150719 -5.313342
  H 3.352784 -3.055201 -5.198110
  H 6.822674 -0.530408 -1.268461
 23
 1.811021
  H 1.406193 0.094557 0.500388
  C 2.484231 0.108840 0.425106
  C 3.227139 0.692496 1.545572
  H 2.560495 1.064227 2.316466
  C 3.037628 -0.424958 -0.719711
  C 4.413944 -0.457307 -0.959452
  C 5.106981 -0.874027 -2.097220
  C 4.606084 -1.351919 -3.409125
  C 3.117266 -1.511259 -3.685194
  C 2.906485 -2.034053 -5.104468
  O 6.422302 -0.790194 -2.094918
  H 3.868944 1.507696 1.206056
  H 3.897710 -0.048195 1.986808
  H 2.360167 -0.826975 -1.452817
  H 5.050466 -0.114940 -0.153073
  H 5.108009 -2.310638 -3.587450
  H 5.036747 -0.681955 -4.164816
  H 2.607906 -0.551559 -3.592312
  H 2.677339 -2.225788 -2.988475
  H 3.317846 -1.346005 -5.839241
  H 1.845497 -2.149894 -5.309997
  H 3.382369 -3.002475 -5.238281
  H 6.872306 -0.865180 -1.233354
 23
 5.860869
  H 1.418171 -0.168904 0.588240
  C 2.477994 -0.014702 0.440369
  C 3.158860 0.905655 1.354560
  H 2.467365 1.362076 2.053471
  C 3.068693 -0.683094 -0.609168
  C 4.434032 -0.598130 -0.900397
  C 5.130398 -0.975254 -2.045258
  C 4.623627 -1.338635 -3.387085
  C 3.131582 -1.503429 -3.635378
  C 2.877871 -1.832933 -5.104042
  O 6.450341 -0.826391 -2.030878
  H 3.686490 1.688136 0.807041
  H 3.929284 0.373777 1.917895
  H 2.440429 -1.316409 -1.212743
  H 5.081180 -0.142081 -0.161295
  H 5.144841 -2.259683 -3.675571
  H 5.022086 -0.583355 -4.078001
  H 2.602038 -0.583219 -3.386493
  H 2.737090 -2.317764 -3.027833
  H 3.236465 -1.035794 -5.750630
  H 1.813499 -1.958289 -5.284132
  H 3.377835 -2.755598 -5.388816
  H 6.930504 -1.239060 -1.292811
 23
 10.819650
  H 1.411290 -0.215858 0.605149
  C 2.465189 -0.038051 0.441517
  C 3.125157 0.944124 1.301884
  H 2.427125 1.414293 1.985838
  C 3.070733 -0.736037 -0.583696
  C 4.433538 -0.626706 -0.886567
  C 5.138007 -0.997117 -2.022304
  C 4.644863 -1.334609 -3.370924
  C 3.153795 -1.518202 -3.613536
  C 2.887687 -1.803723 -5.089302
  O 6.469230 -0.803968 -1.957280
  H 3.628397 1.712112 0.712440
  H 3.917990 0.461827 1.879278
  H 2.461774 -1.417368 -1.155681
  H 5.099340 -0.158063 -0.169599
  H 5.179877 -2.234736 -3.697724
  H 5.029512 -0.548869 -4.036466
  H 2.610915 -0.616713 -3.326058
  H 2.779952 -2.357882 -3.027210
  H 3.224694 -0.979771 -5.713761
  H 1.823395 -1.941328 -5.261209
  H 3.399318 -2.708017 -5.410501
  H 6.981007 -1.513044 -1.544884
 23
 12.518474
  H 1.386335 -0.261073 0.604397
  C 2.437875 -0.075990 0.434622
  C 3.063985 1.019567 1.176120
  H 2.350354 1.543499 1.802599
  C 3.077274 -0.859456 -0.497900
  C 4.438518 -0.722278 -0.811303
  C 5.152039 -1.027320 -1.961284
  C 4.670823 -1.294933 -3.330156
  C 3.175114 -1.484055 -3.547689
  C 2.874609 -1.720483 -5.024968
  O 6.471675 -0.832545 -1.811986
  H 3.546111 1.731385 0.504756
  H 3.870766 0.627127 1.800709
  H 2.509787 -1.637509 -0.984845
  H 5.150196 -0.383933 -0.064310
  H 5.199469 -2.171260 -3.724109
  H 5.028717 -0.455880 -3.942215
  H 2.632620 -0.599414 -3.210782
  H 2.822219 -2.344978 -2.980200
  H 3.192408 -0.873425 -5.628372
  H 1.807320 -1.858514 -5.176288
  H 3.383115 -2.610024 -5.389554
  H 7.045622 -1.612561 -1.868603
 23
 21.440219
  H 1.402038 -0.402628 0.574646
  C 2.443416 -0.189196 0.367560
  C 2.993708 1.075324 0.853815
  H 2.221663 1.725153 1.252614
  C 3.148055 -1.113773 -0.350805
  C 4.488251 -0.918611 -0.757751
  C 5.191050 -1.111294 -1.926829
  C 4.719494 -1.265393 -3.314958
  C 3.212351 -1.412624 -3.471553
  C 2.826058 -1.538798 -4.942937
  O 6.508270 -0.930514 -1.699519
  H 3.543477 1.600921 0.074258
  H 3.724669 0.873249 1.641789
  H 2.677617 -2.064674 -0.592995
  H 5.316945 -0.590592 -0.122315
  H 5.202637 -2.151952 -3.746395
  H 5.084589 -0.406025 -3.894181
  H 2.708079 -0.540504 -3.038557
  H 2.868080 -2.296947 -2.931774
  H 3.137009 -0.660787 -5.501998
  H 1.748195 -1.639944 -5.044324
  H 3.293018 -2.413624 -5.394715
  H 7.090762 -1.682400 -1.878120
 23
 45.720321
  H 1.457096 -0.361988 0.943678
  C 2.452529 -0.163816 0.573477
  C 3.076849 1.116256 0.922197
  H 2.387883 1.767808 1.449834
  C 3.040794 -1.113967 -0.222766
  C 4.296108 -0.959310 -0.801379
  C 5.032222 -1.128985 -1.930300
  C 4.705366 -1.268738 -3.361580
  C 3.207842 -1.442892 -3.614607
  C 2.916998 -1.576072 -5.104751
  O 6.338978 -0.891647 -1.562695
  H 3.445124 1.622926 0.029974
  H 3.949311 0.948672 1.556589
  H 2.538138 -2.063991 -0.361175
  H 5.420724 -0.631559 -0.309293
  H 5.243807 -2.134122 -3.762787
  H 5.074434 -0.386740 -3.893155
  H 2.666729 -0.583268 -3.216122
  H 2.849770 -2.333744 -3.097577
  H 3.246319 -0.690487 -5.643424
  H 1.850614 -1.697238 -5.275510
  H 3.426820 -2.440290 -5.524657
  H 6.954860 -1.644299 -1.644190
 23
 59.989653
  H 1.499638 -0.328141 1.096141
  C 2.458559 -0.152336 0.632847
  C 3.095091 1.162148 0.830271
  H 2.434260 1.851318 1.345486
  C 3.003668 -1.153928 -0.126367
  C 4.195919 -1.041183 -0.806518
  C 4.934750 -1.181251 -1.885099
  C 4.678605 -1.282079 -3.339034
  C 3.191399 -1.435004 -3.654959
  C 2.960446 -1.529446 -5.158397
  O 6.292507 -0.950804 -1.441838
  H 3.393149 1.590254 -0.126874
  H 4.007449 1.058246 1.419269
  H 2.518098 -2.123778 -0.135612
  H 5.621664 -0.725730 -0.386435
  H 5.222458 -2.143427 -3.737217
  H 5.075193 -0.391204 -3.833223
  H 2.642717 -0.579981 -3.257331
  H 2.806103 -2.334634 -3.173233
  H 3.319643 -0.634702 -5.662277
  H 1.900446 -1.636210 -5.374727
  H 3.478619 -2.389276 -5.577623
  H 6.903005 -1.715730 -1.521889
 23
 51.767413
  H 1.548544 -0.338901 1.227137
  C 2.470447 -0.162429 0.700068
  C 3.091932 1.171064 0.811186
  H 2.440606 1.866370 1.330107
  C 2.990784 -1.180212 -0.061029
  C 4.115668 -1.085557 -0.823914
  C 4.869777 -1.192627 -1.869370
  C 4.673542 -1.269407 -3.330319
  C 3.191528 -1.440377 -3.685841
  C 2.998974 -1.518800 -5.195664
  O 6.289307 -0.952017 -1.406320
  H 3.328812 1.568917 -0.174184
  H 4.030557 1.111212 1.366398
  H 2.519853 -2.160609 -0.007202
  H 5.860960 -0.793414 -0.496962
  H 5.236781 -2.122271 -3.721861
  H 5.063164 -0.362808 -3.792273
  H 2.618429 -0.605526 -3.288455
  H 2.810068 -2.352261 -3.226541
  H 3.352642 -0.612360 -5.678703
  H 1.946704 -1.641425 -5.438488
  H 3.540467 -2.363706 -5.612480
  H 6.923851 -1.706016 -1.491137
 23
 44.180280
  H 1.465920 -0.263223 1.178447
  C 2.414570 -0.111543 0.686987
  C 3.109207 1.186043 0.894451
  H 2.477123 1.890865 1.418375
  C 2.908233 -1.124298 -0.102413
  C 4.047579 -1.057166 -0.836871
  C 4.854449 -1.171574 -1.850835
  C 4.653439 -1.272737 -3.330803
  C 3.181115 -1.449305 -3.703364
  C 3.012929 -1.568960 -5.212230
  O 6.293156 -0.974479 -1.450320
  H 3.414414 1.613341 -0.054304
  H 4.021230 1.042548 1.487010
  H 2.393452 -2.080360 -0.093577
  H 6.063501 -0.706376 -0.522014
  H 5.217747 -2.124008 -3.705746
  H 5.055127 -0.375620 -3.814133
  H 2.606249 -0.599196 -3.339996
  H 2.789462 -2.346414 -3.225018
  H 3.381246 -0.685194 -5.711031
  H 1.963937 -1.690347 -5.470292
  H 3.557793 -2.432043 -5.597188
  H 6.840157 -1.784298 -1.561917
 23
 39.013689
  H 1.514861 -0.355996 1.201370
  C 2.419848 -0.177696 0.643081
  C 2.954679 1.202281 0.602604
  H 2.265818 1.903805 1.062847
  C 2.997684 -1.237000 -0.016967
  C 4.116397 -1.174087 -0.775248
  C 4.917132 -1.275858 -1.779989
  C 4.675340 -1.302091 -3.253279
  C 3.187943 -1.369778 -3.594286
  C 2.976014 -1.387455 -5.103593
  O 6.378347 -1.143154 -1.481550
  H 3.146851 1.510745 -0.425215
  H 3.904202 1.261669 1.136351
  H 2.568282 -2.222897 0.122363
  H 6.366669 -0.824535 -0.551601
  H 5.180278 -2.169317 -3.684919
  H 5.113184 -0.404833 -3.698464
  H 2.673618 -0.508112 -3.165838
  H 2.751643 -2.268461 -3.155703
  H 3.383965 -0.489597 -5.562182
  H 1.915622 -1.434108 -5.338577
  H 3.459363 -2.251953 -5.553479
  H 6.879816 -1.986235 -1.584951
 23
 37.087904
  H 1.536551 -0.398305 1.211897
  C 2.410511 -0.216882 0.613342
  C 2.848286 1.184147 0.419997
  H 2.104742 1.885134 0.796096
  C 3.051438 -1.297361 0.047288
  C 4.147817 -1.235179 -0.737504
  C 4.964864 -1.303891 -1.730728
  C 4.688997 -1.290948 -3.203758
  C 3.191295 -1.310318 -3.520180
  C 2.953108 -1.279383 -5.022697
  O 6.434289 -1.259033 -1.510399
  H 3.035274 1.388449 -0.633367
  H 3.783557 1.367490 0.948859
  H 2.682258 -2.291694 0.276258
  H 6.648199 -0.872205 -0.631229
  H 5.160194 -2.162257 -3.665847
  H 5.141449 -0.396392 -3.635468
  H 2.705968 -0.450425 -3.058907
  H 2.739060 -2.209419 -3.100155
  H 3.373196 -0.377861 -5.462495
  H 1.886807 -1.296413 -5.240018
  H 3.408699 -2.139921 -5.504802
  H 6.850999 -2.141997 -1.613405
 23
 36.005392
  H 1.677871 -0.401868 1.418887
  C 2.465410 -0.229009 0.702948
  C 2.813251 1.170908 0.375890
  H 1.990234 1.841882 0.607585
  C 3.094693 -1.321667 0.142375
  C 4.091731 -1.266854 -0.762637
  C 4.926271 -1.296682 -1.740503
  C 4.681205 -1.297148 -3.216271
  C 3.191957 -1.268407 -3.553147
  C 2.974291 -1.254534 -5.061420
  O 6.396790 -1.253505 -1.484222
  H 3.084181 1.271721 -0.673642
  H 3.673617 1.495494 0.966468
  H 2.781607 -2.311578 0.451373
  H 6.598200 -0.981716 -0.561053
  H 5.127302 -2.186767 -3.664301
  H 5.170096 -0.420309 -3.648535
  H 2.731360 -0.383635 -3.112272
  H 2.702664 -2.142809 -3.123141
  H 3.434413 -0.377397 -5.511273
  H 1.911720 -1.233641 -5.292414
  H 3.402189 -2.141429 -5.523496
  H 6.826503 -2.115715 -1.694424
