 10
 0.000000
  H 1.433220 -0.076949 0.036998
  C 2.508195 -0.083354 0.024423
  C 3.216798 -0.594268 -0.978587
  C 4.661757 -0.607754 -1.005062
  C 5.370982 -1.118851 -2.008432
  H 6.445853 -1.124968 -2.020435
  H 3.003299 0.351815 0.878735
  H 2.704272 -1.027657 -1.829396
  H 5.169786 -0.173300 -0.152158
  H 4.872870 -1.553326 -2.861375
 10
 1.101702
  H 1.446135 0.005051 -0.005778
  C 2.522769 0.007452 -0.026611
  C 3.212963 -0.704046 -0.908734
  C 4.664237 -0.738044 -0.956015
  C 5.357426 -1.032853 -2.048385
  H 6.433813 -1.034592 -2.060050
  H 3.014573 0.601189 0.726360
  H 2.699112 -1.313486 -1.640952
  H 5.175374 -0.503497 -0.031258
  H 4.867880 -1.279183 -2.977005
 10
 3.508459
  H 1.464635 0.071029 -0.049250
  C 2.540849 0.062187 -0.092694
  C 3.207747 -0.808368 -0.833387
  C 4.668778 -0.854093 -0.915797
  C 5.337956 -0.938045 -2.054965
  H 6.412677 -0.970864 -2.085472
  H 3.049134 0.805082 0.496968
  H 2.677489 -1.559781 -1.404952
  H 5.196263 -0.850721 0.028983
  H 4.831564 -0.964983 -3.004610
 10
 5.161696
  H 1.502575 0.134146 -0.089554
  C 2.575128 0.108093 -0.183260
  C 3.205745 -0.909392 -0.741605
  C 4.668032 -0.989878 -0.890084
  C 5.303637 -0.836004 -2.037896
  H 6.375858 -0.902586 -2.110729
  H 3.110039 0.961299 0.199782
  H 2.649222 -1.757684 -1.122487
  H 5.220319 -1.192441 0.020319
  H 4.772956 -0.631790 -2.953477
 10
 5.221685
  H 1.541518 0.168377 -0.095900
  C 2.606362 0.125398 -0.253668
  C 3.210296 -0.973462 -0.666326
  C 4.661818 -1.090819 -0.882515
  C 5.274913 -0.770009 -2.006657
  H 6.339078 -0.880613 -2.129684
  H 3.156458 1.031746 -0.062611
  H 2.641546 -1.878543 -0.850591
  H 5.222695 -1.488542 -0.043231
  H 4.732689 -0.376840 -2.850522
 10
 4.204319
  H 1.584267 0.220181 -0.097938
  C 2.633334 0.154541 -0.332104
  C 3.222356 -0.997154 -0.602035
  C 4.647901 -1.157921 -0.903280
  C 5.248264 -0.691706 -1.983370
  H 6.297123 -0.850163 -2.169069
  H 3.181227 1.082237 -0.351969
  H 2.667995 -1.927695 -0.569944
  H 5.191899 -1.746323 -0.173852
  H 4.710146 -0.116821 -2.719011
 10
 3.098645
  H 1.637847 0.277634 -0.137301
  C 2.674497 0.148490 -0.431305
  C 3.243114 -1.041618 -0.512582
  C 4.628017 -1.251540 -0.912371
  C 5.210967 -0.599765 -1.904158
  H 6.236401 -0.799722 -2.199802
  H 3.217746 1.043761 -0.702232
  H 2.684078 -1.945611 -0.291699
  H 5.176492 -1.994080 -0.335638
  H 4.674930 0.140787 -2.484192
