 20
 0.000000
  C 1.007552 -0.071370 0.047949
  C 2.503681 -0.083201 0.024723
  C 3.217320 -0.596601 -0.983169
  C 4.655718 -0.606511 -1.002621
  C 5.378643 -1.120874 -2.012398
  C 6.817756 -1.129505 -2.029340
  C 7.534302 -1.641788 -3.035046
  C 9.024386 -1.661870 -3.074462
  H 0.647151 0.395265 0.964026
  H 0.611198 -1.086075 0.010199
  H 0.611198 0.494701 -0.795032
  H 3.005440 0.351992 0.879084
  H 2.704671 -1.029721 -1.833443
  H 5.158519 -0.171115 -0.147870
  H 4.876509 -1.556386 -2.867383
  H 7.325485 -0.695241 -1.176806
  H 7.034251 -2.077824 -3.891040
  H 9.459878 -1.208915 -2.185245
  H 9.382870 -1.115946 -3.948682
  H 9.382871 -2.689995 -3.146892
 20
 0.526629
  C 1.029132 0.061539 -0.017755
  C 2.505226 -0.151497 0.057858
  C 3.223606 -0.740081 -0.902603
  C 4.648493 -0.880392 -0.872022
  C 5.374006 -1.384535 -1.894448
  C 6.807268 -1.320557 -1.956264
  C 7.532600 -1.682733 -3.019279
  C 9.008828 -1.519347 -3.132607
  H 0.696552 0.767675 0.738587
  H 0.500661 -0.880439 0.141277
  H 0.742365 0.436156 -0.997862
  H 2.996813 0.171523 0.966428
  H 2.730504 -1.064572 -1.811038
  H 5.156107 -0.499967 0.004626
  H 4.866144 -1.805855 -2.752960
  H 7.300270 -0.859707 -1.108223
  H 7.044449 -2.144690 -3.869094
  H 9.422980 -1.064122 -2.235833
  H 9.254285 -0.892643 -3.990653
  H 9.486951 -2.487642 -3.289413
 20
 5.757011
  C 1.137515 0.250961 -0.138038
  C 2.524842 -0.253096 0.092072
  C 3.257110 -0.865229 -0.843637
  C 4.641825 -1.194357 -0.722086
  C 5.376932 -1.693450 -1.739618
  C 6.775387 -1.434847 -1.892049
  C 7.510808 -1.771799 -2.955494
  C 8.901663 -1.301588 -3.202856
  H 0.820804 0.906342 0.668795
  H 0.433160 -0.580013 -0.195977
  H 1.076502 0.796172 -1.079325
  H 2.942658 -0.099839 1.078353
  H 2.826391 -1.013218 -1.827451
  H 5.140927 -0.896743 0.193914
  H 4.876149 -2.204591 -2.554962
  H 7.213779 -0.788263 -1.139361
  H 7.089791 -2.417663 -3.715929
  H 9.246828 -0.657655 -2.397211
  H 8.950297 -0.748804 -4.141932
  H 9.581498 -2.150049 -3.290035
 20
 17.347256
  C 1.257647 0.419856 -0.250115
  C 2.556984 -0.240521 0.071171
  C 3.315309 -0.859291 -0.842172
  C 4.621830 -1.371243 -0.640300
  C 5.390581 -1.869440 -1.656358
  C 6.715794 -1.425357 -1.896252
  C 7.479348 -1.745114 -2.952713
  C 8.786728 -1.105014 -3.267156
  H 0.919264 1.042412 0.573669
  H 0.489307 -0.330189 -0.447781
  H 1.346347 1.036448 -1.144095
  H 2.895896 -0.188146 1.097077
  H 2.959399 -0.896335 -1.866565
  H 5.075542 -1.228627 0.335229
  H 4.937749 -2.535290 -2.382633
  H 7.078620 -0.669346 -1.209002
  H 7.136271 -2.494299 -3.655495
  H 9.051937 -0.365457 -2.515434
  H 8.749034 -0.618102 -4.243047
  H 9.575022 -1.858505 -3.312621
 20
 34.709968
  C 1.387048 0.526359 -0.301980
  C 2.576518 -0.298258 0.060734
  C 3.390544 -0.868028 -0.853041
  C 4.581273 -1.548039 -0.567964
  C 5.429843 -2.036210 -1.565960
  C 6.637659 -1.405363 -1.894972
  C 7.449870 -1.759522 -2.908616
  C 8.658042 -0.995309 -3.319448
  H 1.004407 1.076449 0.554412
  H 0.573468 -0.095258 -0.680666
  H 1.635844 1.232160 -1.100081
  H 2.798125 -0.414447 1.112067
  H 3.129383 -0.767272 -1.901766
  H 4.964933 -1.528141 0.450168
  H 5.061764 -2.840701 -2.197958
  H 6.906808 -0.536727 -1.301021
  H 7.219126 -2.638060 -3.493829
  H 8.813672 -0.124596 -2.682630
  H 8.569820 -0.662923 -4.358235
  H 9.552468 -1.615085 -3.259755
 20
 54.341538
  C 1.495039 0.610830 -0.325431
  C 2.621124 -0.273399 0.080112
  C 3.483511 -0.845965 -0.824492
  C 4.529128 -1.689375 -0.518831
  C 5.455932 -2.168617 -1.532875
  C 6.547943 -1.425326 -1.931107
  C 7.411138 -1.742924 -2.949129
  C 8.566973 -0.901633 -3.346320
  H 1.078358 1.135702 0.530907
  H 0.693767 0.026954 -0.787016
  H 1.821781 1.343219 -1.065200
  H 2.757447 -0.468193 1.133999
  H 3.324244 -0.628434 -1.875299
  H 4.726118 -1.932895 0.518900
  H 5.227861 -3.094728 -2.048057
  H 6.735440 -0.508121 -1.382848
  H 7.250655 -2.649490 -3.515924
  H 8.639437 -0.013925 -2.721754
  H 8.475689 -0.590590 -4.389733
  H 9.498997 -1.465463 -3.264409
 20
 38.852133
  C 1.585328 0.644215 -0.346119
  C 2.692971 -0.267902 0.058008
  C 3.569920 -0.808545 -0.822572
  C 4.512581 -1.803598 -0.509752
  C 5.471078 -2.249691 -1.444327
  C 6.466483 -1.396740 -1.955303
  C 7.347018 -1.724645 -2.931139
  C 8.483910 -0.865013 -3.353133
  H 1.139234 1.126238 0.519866
  H 0.799977 0.090352 -0.866038
  H 1.945468 1.410964 -1.031933
  H 2.773646 -0.520414 1.105912
  H 3.490434 -0.540125 -1.869227
  H 4.556289 -2.156917 0.512774
  H 5.389469 -3.244055 -1.864576
  H 6.575683 -0.442467 -1.453785
  H 7.243404 -2.671461 -3.444284
  H 8.512353 0.057287 -2.777523
  H 8.394585 -0.615727 -4.412020
  H 9.434198 -1.387933 -3.227075
 20
 23.751465
  C 1.670058 0.687839 -0.369806
  C 2.742118 -0.264890 0.045022
  C 3.654912 -0.778314 -0.806375
  C 4.499052 -1.887794 -0.507795
  C 5.487484 -2.303611 -1.368243
  C 6.393727 -1.385673 -1.975919
  C 7.297109 -1.716010 -2.920138
  C 8.396148 -0.824293 -3.381045
  H 1.177630 1.125694 0.494443
  H 0.914475 0.171960 -0.964893
  H 2.077445 1.488110 -0.987139
  H 2.749177 -0.577007 1.080496
  H 3.675409 -0.440980 -1.835552
  H 4.388718 -2.347306 0.464997
  H 5.537270 -3.335378 -1.688473
  H 6.415759 -0.396120 -1.535906
  H 7.259532 -2.697491 -3.374845
  H 8.371253 0.129271 -2.859056
  H 8.311876 -0.640486 -4.453286
  H 9.365542 -1.294364 -3.210330
 20
 12.278267
  C 1.797000 0.777062 -0.399351
  C 2.748190 -0.296029 0.015354
  C 3.704184 -0.791800 -0.781132
  C 4.461265 -1.981005 -0.514021
  C 5.511439 -2.364560 -1.286323
  C 6.329462 -1.419249 -1.995377
  C 7.277639 -1.724484 -2.892509
  C 8.270783 -0.751442 -3.438367
  H 1.285399 1.200591 0.457134
  H 1.049964 0.371871 -1.070304
  H 2.313469 1.573511 -0.930555
  H 2.657221 -0.662644 1.027466
  H 3.801467 -0.413695 -1.793868
  H 4.204027 -2.539726 0.382621
  H 5.729574 -3.413014 -1.430680
  H 6.272803 -0.409013 -1.610780
  H 7.349904 -2.739627 -3.274280
  H 8.168861 0.220897 -2.962008
  H 8.135453 -0.629791 -4.513598
  H 9.280422 -1.117235 -3.280445
 20
 13.939410
  C 1.877404 0.815176 -0.492862
  C 2.798550 -0.255612 0.017054
  C 3.780063 -0.807138 -0.731473
  C 4.467129 -2.047310 -0.481409
  C 5.538110 -2.430784 -1.244557
  C 6.296778 -1.466711 -1.985962
  C 7.190448 -1.692683 -2.930123
  C 8.162577 -0.676314 -3.431085
  H 1.446572 1.392432 0.325743
  H 1.055841 0.356272 -1.050322
  H 2.395673 1.493827 -1.172673
  H 2.749177 -0.466054 1.081756
  H 3.873407 -0.476899 -1.765830
  H 4.180294 -2.609335 0.396510
  H 5.774800 -3.480154 -1.386214
  H 6.265864 -0.477735 -1.540676
  H 7.253553 -2.673521 -3.387334
  H 8.171409 0.205879 -2.789933
  H 7.907107 -0.363279 -4.446342
  H 9.165364 -1.103975 -3.465237
