 16
 0.000000
  C 0.991363 0.130949 0.385940
  C 2.442113 0.088857 0.277189
  H 3.040686 0.426772 1.113050
  C 3.078459 -0.364599 -0.854472
  C 4.481027 -0.409032 -0.970446
  C 5.165805 -0.855798 -2.082028
  C 4.604055 -1.356307 -3.325307
  H 3.522939 -1.369213 -3.356586
  H 6.247063 -0.834989 -2.031316
  H 0.647732 0.509814 1.341449
  H 0.572669 -0.864179 0.211013
  H 0.579728 0.736313 -0.426312
  H 2.469427 -0.698342 -1.683316
  H 5.065702 -0.068214 -0.125861
  H 4.995847 -2.357773 -3.518661
  H 4.995604 -0.767785 -4.158506
 16
 0.490134
  C 0.996290 0.204174 0.374844
  C 2.433418 -0.015827 0.303097
  H 3.036544 0.207581 1.174090
  C 3.064534 -0.459229 -0.837941
  C 4.460104 -0.437636 -0.970430
  C 5.156044 -0.779936 -2.110729
  C 4.623559 -1.423905 -3.301866
  H 3.578951 -1.702668 -3.231367
  H 6.215643 -0.558352 -2.127227
  H 0.664277 0.488867 1.366646
  H 0.443480 -0.670474 0.022429
  H 0.728446 0.993906 -0.335357
  H 2.455974 -0.768859 -1.676985
  H 5.027550 -0.051971 -0.133615
  H 5.229343 -2.302525 -3.536954
  H 4.778672 -0.767869 -4.163843
 16
 2.910966
  C 1.023617 0.266932 0.367217
  C 2.413125 -0.166770 0.347819
  H 2.994113 -0.085204 1.258862
  C 3.047395 -0.604253 -0.796539
  C 4.427471 -0.452282 -0.970613
  C 5.120783 -0.726559 -2.130304
  C 4.635617 -1.482980 -3.273493
  H 3.652766 -1.917186 -3.132792
  H 6.129937 -0.346638 -2.206228
  H 0.688622 0.557875 1.356933
  H 0.354629 -0.482832 -0.059052
  H 0.944564 1.125789 -0.308389
  H 2.444161 -0.960916 -1.620251
  H 4.969740 0.026947 -0.165626
  H 5.357009 -2.266118 -3.518661
  H 4.635757 -0.839426 -4.158487
 16
 7.279264
  C 1.081429 0.364500 0.332940
  C 2.394672 -0.260320 0.370854
  H 2.920571 -0.311914 1.316906
  C 3.048119 -0.694010 -0.769859
  C 4.396524 -0.410846 -0.990799
  C 5.078429 -0.646012 -2.162840
  C 4.639274 -1.485849 -3.272147
  H 3.714804 -2.022794 -3.080660
  H 6.030584 -0.148362 -2.291221
  H 0.741238 0.688053 1.308896
  H 0.329833 -0.272105 -0.137064
  H 1.180769 1.224661 -0.332363
  H 2.460337 -1.123849 -1.571027
  H 4.908750 0.149865 -0.218965
  H 5.432223 -2.194773 -3.518864
  H 4.534082 -0.873427 -4.172821
 16
 12.884759
  C 1.143067 0.440134 0.325871
  C 2.372955 -0.332456 0.390449
  H 2.821396 -0.528145 1.358535
  C 3.051456 -0.751525 -0.750255
  C 4.359359 -0.363282 -1.020313
  C 5.034254 -0.600979 -2.194865
  C 4.637137 -1.518552 -3.258631
  H 3.757057 -2.107461 -3.024476
  H 5.943532 -0.040348 -2.365743
  H 0.803345 0.774842 1.298843
  H 0.337910 -0.096579 -0.182112
  H 1.366523 1.295604 -0.319806
  H 2.487848 -1.271127 -1.518452
  H 4.836267 0.277498 -0.290445
  H 5.471645 -2.185634 -3.482124
  H 4.474947 -0.958706 -4.182966
 16
 20.676966
  C 1.228445 0.534252 0.341208
  C 2.344668 -0.390930 0.401934
  H 2.678612 -0.760073 1.364606
  C 3.051645 -0.783909 -0.743585
  C 4.305828 -0.300733 -1.074687
  C 4.982907 -0.562895 -2.243694
  C 4.636787 -1.562886 -3.248416
  H 3.802612 -2.195929 -2.967303
  H 5.848018 0.049345 -2.460666
  H 0.873891 0.834058 1.322693
  H 0.388679 0.126597 -0.232774
  H 1.565872 1.397429 -0.239052
  H 2.529502 -1.420135 -1.453285
  H 4.749315 0.413031 -0.394309
  H 5.510173 -2.185674 -3.447415
  H 4.422872 -1.067835 -4.198311
 16
 29.201999
  C 1.325579 0.626008 0.374594
  C 2.305916 -0.437603 0.408501
  H 2.512682 -0.946283 1.343413
  C 3.059779 -0.819609 -0.741899
  C 4.238961 -0.232052 -1.135053
  C 4.930269 -0.527482 -2.298722
  C 4.632143 -1.594739 -3.251742
  H 3.827337 -2.250580 -2.938869
  H 5.765858 0.112125 -2.548528
  H 0.952514 0.888537 1.358801
  H 0.478970 0.335333 -0.259050
  H 1.739664 1.496079 -0.146510
  H 2.617317 -1.589417 -1.369463
  H 4.646513 0.542685 -0.500604
  H 5.533236 -2.186050 -3.424400
  H 4.392527 -1.158728 -4.223980
 16
 18.412086
  C 1.408095 0.690390 0.410932
  C 2.283551 -0.465938 0.369548
  H 2.324004 -1.113309 1.238668
  C 3.068341 -0.823497 -0.735799
  C 4.174369 -0.135145 -1.222257
  C 4.865215 -0.482865 -2.360143
  C 4.602797 -1.613151 -3.250951
  H 3.790599 -2.253283 -2.926496
  H 5.697063 0.149880 -2.641147
  H 0.999245 0.874888 1.398861
  H 0.580809 0.494337 -0.280153
  H 1.862624 1.589610 -0.013176
  H 2.751764 -1.720215 -1.263767
  H 4.530489 0.704516 -0.645715
  H 5.513599 -2.205507 -3.358890
  H 4.388663 -1.239454 -4.254578
 16
 9.544601
  C 1.512565 0.730583 0.428859
  C 2.256284 -0.514701 0.345203
  H 2.136288 -1.230701 1.155010
  C 3.081587 -0.873733 -0.706285
  C 4.120964 -0.113805 -1.252672
  C 4.834716 -0.475822 -2.367666
  C 4.591323 -1.614721 -3.247799
  H 3.815744 -2.291830 -2.899524
  H 5.658669 0.161909 -2.651382
  H 1.161293 0.943931 1.434480
  H 0.631103 0.616327 -0.215162
  H 2.029881 1.581260 -0.014680
  H 2.938457 -1.877478 -1.094017
  H 4.402951 0.790262 -0.726841
  H 5.524276 -2.166326 -3.393381
  H 4.329421 -1.244926 -4.242145
 16
 5.054324
  C 1.623871 0.768446 0.420267
  C 2.229209 -0.552262 0.335872
  H 1.945828 -1.288012 1.078603
  C 3.111424 -0.932909 -0.652612
  C 4.076952 -0.109819 -1.256814
  C 4.769706 -0.439716 -2.397397
  C 4.565606 -1.602738 -3.248779
  H 3.844967 -2.315780 -2.866985
  H 5.527528 0.256306 -2.732408
  H 1.252675 1.000196 1.413665
  H 0.756303 0.773641 -0.251116
  H 2.270295 1.543926 0.015082
  H 3.060734 -1.966830 -0.975670
  H 4.325466 0.813532 -0.753350
  H 5.522246 -2.097647 -3.426954
  H 4.249013 -1.261867 -4.237006
 16
 4.325885
  C 1.711236 0.786891 0.369762
  C 2.173617 -0.594539 0.313504
  H 1.713391 -1.327050 0.967146
  C 3.134284 -1.000700 -0.589625
  C 4.069541 -0.134749 -1.197004
  C 4.725092 -0.396198 -2.382006
  C 4.567134 -1.567313 -3.238773
  H 3.965066 -2.358540 -2.805759
  H 5.386705 0.374528 -2.760080
  H 1.358725 1.077157 1.354239
  H 0.855371 0.892507 -0.307921
  H 2.475289 1.443365 -0.050502
  H 3.166681 -2.050204 -0.859815
  H 4.327150 0.777090 -0.674877
  H 5.552534 -1.953434 -3.512395
  H 4.129661 -1.255550 -4.190771
