 20
 0.000000
  H 1.427069 0.194947 0.537096
  C 2.492056 0.137817 0.394441
  H 3.134155 0.460581 1.196972
  C 3.002178 -0.333934 -0.780060
  C 4.388430 -0.414591 -0.981698
  C 5.102675 -0.864499 -2.103687
  C 4.613979 -1.384960 -3.401324
  C 3.128233 -1.507817 -3.708502
  C 2.934802 -2.071809 -5.114219
  O 6.408674 -0.846560 -2.059129
  H 2.321648 -0.644570 -1.553223
  H 4.995696 -0.079244 -0.146339
  H 5.083126 -2.368944 -3.528197
  H 5.083700 -0.761919 -4.173070
  H 2.647069 -0.530302 -3.662443
  H 2.646657 -2.182236 -2.999666
  H 3.382763 -1.422025 -5.862031
  H 1.875619 -2.162285 -5.340333
  H 3.382485 -3.058392 -5.205425
  H 6.804248 -0.514425 -1.228923
 20
 -0.028846
  H 1.432981 0.198684 0.555523
  C 2.494166 0.153040 0.385340
  H 3.135651 0.524679 1.169883
  C 3.000316 -0.351913 -0.774881
  C 4.386185 -0.409990 -0.986596
  C 5.104958 -0.877785 -2.098440
  C 4.612970 -1.390940 -3.399026
  C 3.128686 -1.517709 -3.705460
  C 2.936534 -2.057549 -5.118212
  O 6.409242 -0.870526 -2.048352
  H 2.316421 -0.712141 -1.526253
  H 4.990608 -0.036621 -0.165344
  H 5.091233 -2.366122 -3.543610
  H 5.080385 -0.762658 -4.166766
  H 2.641688 -0.544355 -3.641892
  H 2.654463 -2.207660 -3.009244
  H 3.376670 -1.391429 -5.854558
  H 1.878590 -2.152849 -5.343441
  H 3.392545 -3.039030 -5.227967
  H 6.807158 -0.541055 -1.217267
 20
 -0.005252
  H 1.433697 0.198118 0.554146
  C 2.495118 0.170426 0.375519
  H 3.132754 0.589547 1.137016
  C 3.003885 -0.367495 -0.769134
  C 4.388679 -0.403632 -0.990572
  C 5.108101 -0.891065 -2.093878
  C 4.616433 -1.396529 -3.395992
  C 3.130777 -1.528027 -3.699207
  C 2.935995 -2.043680 -5.123274
  O 6.412418 -0.897916 -2.037862
  H 2.325011 -0.775489 -1.495519
  H 4.992682 0.004375 -0.185597
  H 5.101743 -2.366394 -3.553412
  H 5.076922 -0.755579 -4.158490
  H 2.636828 -0.559724 -3.614927
  H 2.663733 -2.236212 -3.012211
  H 3.366798 -1.360242 -5.849141
  H 1.876022 -2.144257 -5.345869
  H 3.399319 -3.017429 -5.253504
  H 6.809201 -0.573667 -1.206757
 20
 0.023657
  H 1.437727 0.199334 0.549759
  C 2.496855 0.188423 0.363319
  H 3.131541 0.653133 1.102384
  C 3.008482 -0.383308 -0.763192
  C 4.391748 -0.400497 -0.994102
  C 5.111292 -0.906627 -2.088967
  C 4.619413 -1.402339 -3.394683
  C 3.133777 -1.538748 -3.693538
  C 2.935924 -2.030077 -5.126529
  O 6.415302 -0.925770 -2.028191
  H 2.332552 -0.838858 -1.466784
  H 4.994316 0.043046 -0.206971
  H 5.112157 -2.367274 -3.567160
  H 5.072271 -0.746942 -4.150511
  H 2.633517 -0.577169 -3.588597
  H 2.675900 -2.262220 -3.017626
  H 3.359517 -1.329395 -5.843115
  H 1.876851 -2.133566 -5.345819
  H 3.405240 -2.998139 -5.276330
  H 6.812518 -0.603592 -1.195430
 20
 0.078362
  H 1.439295 0.209269 0.539911
  C 2.498143 0.209663 0.347163
  H 3.127561 0.713253 1.063089
  C 3.013949 -0.394790 -0.760199
  C 4.396407 -0.399111 -0.997640
  C 5.115972 -0.924167 -2.083251
  C 4.624150 -1.406182 -3.393848
  C 3.138053 -1.551153 -3.687583
  C 2.936803 -2.017636 -5.128083
  O 6.419055 -0.960499 -2.015333
  H 2.343049 -0.891263 -1.440730
  H 4.997338 0.072832 -0.226002
  H 5.126403 -2.362644 -3.585390
  H 5.065376 -0.731990 -4.140473
  H 2.628341 -0.595813 -3.561788
  H 2.691235 -2.291119 -3.022637
  H 3.349000 -1.299872 -5.833487
  H 1.877100 -2.127912 -5.343439
  H 3.415149 -2.978790 -5.298711
  H 6.817322 -0.640449 -1.182028
 20
 0.179101
  H 1.443244 0.205629 0.536185
  C 2.499620 0.223693 0.334273
  H 3.126201 0.766483 1.030582
  C 3.020561 -0.411937 -0.752436
  C 4.401060 -0.398669 -0.999887
  C 5.120999 -0.939325 -2.077492
  C 4.630713 -1.408930 -3.394671
  C 3.141307 -1.562684 -3.684595
  C 2.937051 -2.001757 -5.133459
  O 6.422523 -0.987812 -2.002991
  H 2.354446 -0.952171 -1.409959
  H 5.000298 0.107751 -0.248732
  H 5.140769 -2.355545 -3.601656
  H 5.063941 -0.715344 -4.134577
  H 2.622572 -0.616061 -3.537027
  H 2.705243 -2.320191 -3.032035
  H 3.338091 -1.264101 -5.826795
  H 1.875725 -2.119116 -5.345557
  H 3.426634 -2.957723 -5.326791
  H 6.818865 -0.670795 -1.167362
 20
 0.300792
  H 1.442471 0.213346 0.514516
  C 2.498222 0.248065 0.304530
  H 3.109714 0.847280 0.957700
  C 3.030415 -0.427100 -0.752252
  C 4.408025 -0.394813 -1.007301
  C 5.129939 -0.960015 -2.071145
  C 4.639267 -1.422046 -3.390671
  C 3.147564 -1.578048 -3.674931
  C 2.935971 -1.983885 -5.129044
  O 6.430146 -1.025375 -1.988235
  H 2.376915 -1.025231 -1.372661
  H 5.004242 0.149808 -0.280075
  H 5.155076 -2.365511 -3.611848
  H 5.063401 -0.717127 -4.121800
  H 2.621737 -0.635309 -3.499400
  H 2.722509 -2.350898 -3.039684
  H 3.326028 -1.223916 -5.809389
  H 1.871585 -2.106670 -5.336042
  H 3.431600 -2.926840 -5.347800
  H 6.823777 -0.708149 -1.153068
 20
 0.457341
  H 1.439058 0.203772 0.493502
  C 2.490292 0.263146 0.273495
  H 3.082615 0.928392 0.880268
  C 3.040011 -0.458248 -0.743675
  C 4.413516 -0.390813 -1.017706
  C 5.138634 -0.977282 -2.068459
  C 4.645946 -1.443491 -3.383544
  C 3.156849 -1.588737 -3.663280
  C 2.936776 -1.954303 -5.128981
  O 6.438224 -1.046946 -1.982331
  H 2.409824 -1.119101 -1.313506
  H 4.999935 0.209241 -0.327592
  H 5.157373 -2.387440 -3.603003
  H 5.070276 -0.740773 -4.115021
  H 2.635578 -0.653906 -3.458183
  H 2.732666 -2.380543 -3.045172
  H 3.322579 -1.179426 -5.788164
  H 1.875587 -2.069455 -5.332806
  H 3.429548 -2.891274 -5.376729
  H 6.833362 -0.730315 -1.145448
 20
 0.741473
  H 1.431481 0.183364 0.468328
  C 2.479312 0.267094 0.242479
  H 3.047894 0.985893 0.806950
  C 3.052380 -0.488356 -0.737379
  C 4.418874 -0.391216 -1.022643
  C 5.153162 -0.987625 -2.065581
  C 4.655880 -1.461804 -3.379291
  C 3.166103 -1.584697 -3.655940
  C 2.937328 -1.927768 -5.124795
  O 6.450175 -1.056724 -1.979341
  H 2.446342 -1.205298 -1.265546
  H 4.991502 0.260013 -0.370625
  H 5.151049 -2.421762 -3.584969
  H 5.091035 -0.777703 -4.115578
  H 2.658766 -0.647271 -3.436566
  H 2.732690 -2.380006 -3.046705
  H 3.337794 -1.152133 -5.775444
  H 1.870769 -2.020728 -5.329339
  H 3.411187 -2.869563 -5.383624
  H 6.845681 -0.742481 -1.141844
 20
 0.963972
  H 1.426196 0.161736 0.453092
  C 2.471717 0.260070 0.222826
  H 3.024632 1.014897 0.758777
  C 3.059611 -0.515599 -0.730620
  C 4.423413 -0.394550 -1.027197
  C 5.159642 -0.993145 -2.064481
  C 4.665001 -1.487211 -3.369987
  C 3.171150 -1.567494 -3.656021
  C 2.941446 -1.908958 -5.125407
  O 6.459387 -1.035344 -1.985728
  H 2.474519 -1.276603 -1.220027
  H 4.981332 0.315819 -0.424112
  H 5.121908 -2.470773 -3.534120
  H 5.138752 -0.846486 -4.124695
  H 2.692031 -0.610608 -3.443430
  H 2.708665 -2.344166 -3.047711
  H 3.390314 -1.161484 -5.775895
  H 1.876750 -1.947187 -5.341461
  H 3.368607 -2.878165 -5.372329
  H 6.852382 -0.724399 -1.146241
 20
 1.419989
  H 1.422675 0.142323 0.439062
  C 2.464968 0.257566 0.206016
  H 2.997825 1.048889 0.709464
  C 3.072458 -0.537590 -0.720268
  C 4.431908 -0.392134 -1.027814
  C 5.162708 -0.994155 -2.065070
  C 4.673057 -1.482052 -3.371239
  C 3.176018 -1.544446 -3.661763
  C 2.944172 -1.904548 -5.124611
  O 6.465405 -1.036969 -1.985724
  H 2.508360 -1.332789 -1.179453
  H 4.976209 0.351742 -0.453553
  H 5.108688 -2.474203 -3.522575
  H 5.164992 -0.855341 -4.125076
  H 2.713052 -0.576918 -3.462695
  H 2.700503 -2.303004 -3.042836
  H 3.402319 -1.175411 -5.786496
  H 1.876213 -1.933697 -5.341879
  H 3.359132 -2.881119 -5.354507
  H 6.857938 -0.750678 -1.137716
 20
 1.056654
  H 1.427146 0.196911 0.423980
  C 2.476921 0.283816 0.204382
  H 3.033719 1.029949 0.748083
  C 3.063944 -0.491916 -0.751505
  C 4.431465 -0.382353 -1.035960
  C 5.169710 -0.990838 -2.066335
  C 4.673630 -1.480348 -3.372127
  C 3.180944 -1.568466 -3.657988
  C 2.952236 -1.922225 -5.125468
  O 6.468260 -1.037599 -1.982155
  H 2.473710 -1.243174 -1.253059
  H 4.989021 0.315438 -0.414361
  H 5.136939 -2.458608 -3.546324
  H 5.140940 -0.826744 -4.121422
  H 2.695852 -0.616838 -3.449589
  H 2.720700 -2.345798 -3.043125
  H 3.398403 -1.174908 -5.784610
  H 1.885862 -1.966962 -5.341257
  H 3.380280 -2.884120 -5.363378
  H 6.858577 -0.728849 -1.140576
 20
 1.206118
  H 1.429594 0.236127 0.400971
  C 2.478370 0.321173 0.175740
  H 3.030591 1.091957 0.687725
  C 3.070445 -0.490954 -0.743844
  C 4.438301 -0.385817 -1.033298
  C 5.172265 -0.999739 -2.064445
  C 4.682066 -1.453793 -3.385900
  C 3.188527 -1.570561 -3.658540
  C 2.952902 -1.918398 -5.126464
  O 6.469120 -1.080048 -1.965710
  H 2.484430 -1.263735 -1.214010
  H 4.996947 0.331465 -0.438922
  H 5.173000 -2.408929 -3.607376
  H 5.120657 -0.752665 -4.109188
  H 2.684194 -0.629952 -3.436239
  H 2.753391 -2.359951 -3.045500
  H 3.351103 -1.146742 -5.780672
  H 1.888840 -2.009816 -5.325616
  H 3.425160 -2.863090 -5.384415
  H 6.857070 -0.778683 -1.120231
 20
 1.046438
  H 1.430589 0.255116 0.400412
  C 2.481390 0.332471 0.175821
  H 3.042405 1.086409 0.701836
  C 3.062778 -0.467407 -0.759803
  C 4.433814 -0.379989 -1.039444
  C 5.170646 -0.997303 -2.065347
  C 4.681204 -1.458699 -3.383594
  C 3.189521 -1.585826 -3.654907
  C 2.954799 -1.920830 -5.125580
  O 6.467456 -1.083970 -1.963944
  H 2.463303 -1.219580 -1.252749
  H 5.007638 0.291675 -0.405466
  H 5.180989 -2.406987 -3.606542
  H 5.111888 -0.756003 -4.108579
  H 2.676828 -0.651826 -3.422250
  H 2.762583 -2.386867 -3.048500
  H 3.338854 -1.136123 -5.772295
  H 1.892579 -2.026344 -5.322517
  H 3.440611 -2.854892 -5.395349
  H 6.857100 -0.765177 -1.127139
