 16
 0.000000
  C 0.989384 0.138953 0.397290
  C 2.437524 0.086417 0.267815
  H 3.044183 0.420140 1.097862
  C 3.069231 -0.369721 -0.867223
  C 4.466615 -0.413339 -0.978931
  C 5.164999 -0.855805 -2.082414
  C 4.615793 -1.357014 -3.331515
  H 3.534367 -1.374192 -3.375033
  H 6.245236 -0.831189 -2.021870
  H 0.668418 0.524545 1.356827
  H 0.559362 -0.852925 0.234312
  H 0.560397 0.743236 -0.406584
  H 2.462094 -0.703652 -1.696353
  H 5.041025 -0.070752 -0.127255
  H 5.014076 -2.359505 -3.521095
  H 5.014421 -0.763907 -4.161454
 16
 1.121964
  C 0.990291 0.146286 0.381232
  C 2.436128 0.169353 0.205225
  H 3.031386 0.765916 0.885573
  C 3.075890 -0.505603 -0.808122
  C 4.476148 -0.514217 -0.939221
  C 5.168652 -0.954396 -2.044339
  C 4.610521 -1.213625 -3.362177
  H 3.537798 -1.067938 -3.424372
  H 6.240903 -1.072138 -1.949658
  H 0.658633 0.770997 1.202366
  H 0.652948 -0.882600 0.539020
  H 0.484328 0.447869 -0.539939
  H 2.478709 -1.078396 -1.504062
  H 5.047243 -0.240901 -0.060503
  H 4.882959 -2.225872 -3.675456
  H 5.108114 -0.574008 -4.097981
 16
 5.253549
  C 0.991176 0.153997 0.359528
  C 2.426738 0.235840 0.111528
  H 2.990462 1.024714 0.592734
  C 3.087552 -0.618061 -0.734008
  C 4.489546 -0.591906 -0.915569
  C 5.166547 -1.034190 -2.021473
  C 4.610185 -1.078622 -3.368216
  H 3.563240 -0.793782 -3.404260
  H 6.215205 -1.285005 -1.920620
  H 0.637062 0.940381 1.017545
  H 0.747414 -0.824401 0.784311
  H 0.429843 0.183518 -0.576786
  H 2.512581 -1.365911 -1.267061
  H 5.056230 -0.451821 -0.000403
  H 4.756383 -2.080011 -3.784088
  H 5.186057 -0.429921 -4.030858
 16
 12.649565
  C 0.991548 0.185100 0.381628
  C 2.404032 0.285026 0.022742
  H 2.935376 1.189999 0.278254
  C 3.064841 -0.696001 -0.667115
  C 4.460651 -0.666161 -0.932646
  C 5.144964 -1.110435 -2.020320
  C 4.660344 -0.977478 -3.394446
  H 3.661946 -0.558991 -3.438746
  H 6.147549 -1.491719 -1.897182
  H 0.633797 1.068147 0.899328
  H 0.828616 -0.706000 0.998673
  H 0.371024 0.016518 -0.503470
  H 2.501831 -1.564440 -0.998237
  H 5.001166 -0.649168 0.017087
  H 4.688217 -1.964268 -3.878896
  H 5.346046 -0.356833 -3.978158
 16
 19.370693
  C 1.004913 0.248071 0.403064
  C 2.379840 0.321175 -0.064820
  H 2.930069 1.246259 0.067696
  C 3.009869 -0.734625 -0.638396
  C 4.414052 -0.797428 -0.959381
  C 5.143870 -1.152748 -2.030908
  C 4.717710 -0.925108 -3.414878
  H 3.743031 -0.457571 -3.462408
  H 6.130575 -1.578493 -1.900195
  H 0.665261 1.177134 0.835115
  H 0.914654 -0.558992 1.131261
  H 0.317756 -0.041266 -0.401485
  H 2.436547 -1.643814 -0.802261
  H 4.844782 -0.889758 0.056473
  H 4.696914 -1.882616 -3.935803
  H 5.452254 -0.307281 -3.945598
 16
 22.853814
  C 1.066534 0.343445 0.276328
  C 2.463899 0.250565 -0.127830
  H 3.070405 1.146945 -0.124404
  C 3.031809 -0.928604 -0.498575
  C 4.396622 -1.072040 -0.904170
  C 5.135485 -1.122470 -1.989305
  C 4.624205 -0.819076 -3.358853
  H 3.591331 -0.489258 -3.332064
  H 6.174909 -1.409175 -1.933664
  H 0.775827 1.359683 0.513481
  H 0.892138 -0.310647 1.136291
  H 0.395718 -0.044636 -0.495067
  H 2.410834 -1.821881 -0.516834
  H 4.770577 -1.260974 0.125743
  H 4.709532 -1.720987 -3.955077
  H 5.235081 -0.056066 -3.834699
 16
 31.971520
  C 1.057276 0.373409 0.383025
  C 2.430830 0.294856 -0.083365
  H 3.026425 1.191784 -0.117046
  C 2.994206 -0.899255 -0.497295
  C 4.291007 -1.089811 -1.039846
  C 5.119134 -1.188953 -2.043891
  C 4.745079 -0.836354 -3.438088
  H 3.700595 -0.577672 -3.507724
  H 6.154680 -1.471794 -1.872753
  H 0.761128 1.389686 0.616678
  H 0.932962 -0.252224 1.254163
  H 0.363180 -0.033775 -0.355236
  H 2.353070 -1.778800 -0.509005
  H 4.445101 -1.358522 0.068171
  H 4.954074 -1.687908 -4.083889
  H 5.353585 0.000819 -3.751207
 16
 42.544362
  C 1.064110 0.374139 0.574762
  C 2.397474 0.312774 -0.027617
  H 2.988180 1.210736 -0.115222
  C 2.940710 -0.922589 -0.480129
  C 4.068756 -1.021950 -1.311303
  C 5.059001 -1.106290 -2.126526
  C 4.942812 -0.911191 -3.608075
  H 3.921847 -0.697474 -3.903091
  H 6.064086 -1.326535 -1.782326
  H 0.791899 1.389214 0.845833
  H 1.012190 -0.255540 1.467290
  H 0.309018 -0.028282 -0.104592
  H 2.261618 -1.774540 -0.471042
  H 3.923759 -1.227702 0.124803
  H 5.286980 -1.810627 -4.111320
  H 5.586997 -0.089890 -3.907374
 16
 42.020958
  C 1.074729 0.408892 0.601592
  C 2.404543 0.332632 -0.001241
  H 3.010306 1.220308 -0.084285
  C 2.937611 -0.919461 -0.462087
  C 4.010384 -0.997062 -1.371660
  C 5.020389 -1.106147 -2.152126
  C 4.965722 -0.958315 -3.645453
  H 3.955933 -0.762687 -3.989679
  H 6.017188 -1.303525 -1.767455
  H 0.815360 1.425399 0.877910
  H 1.012336 -0.224909 1.490690
  H 0.315058 0.018610 -0.080628
  H 2.242999 -1.759634 -0.467297
  H 3.827468 -1.201534 0.208372
  H 5.336396 -1.871536 -4.104494
  H 5.617081 -0.140714 -3.944076
 16
 40.828538
  C 1.085455 0.407877 0.616054
  C 2.428286 0.301374 0.047803
  H 3.076723 1.162748 0.025791
  C 2.927530 -0.961065 -0.462338
  C 3.981463 -1.013161 -1.402698
  C 5.000786 -1.094387 -2.169176
  C 4.986954 -0.898290 -3.663898
  H 3.985915 -0.690493 -4.028820
  H 5.993736 -1.307558 -1.769195
  H 0.862784 1.419229 0.940637
  H 0.964402 -0.270164 1.466933
  H 0.331154 0.089196 -0.108387
  H 2.184906 -1.758751 -0.550458
  H 3.698043 -1.309327 0.285640
  H 5.370208 -1.797087 -4.143157
  H 5.645943 -0.071159 -3.917608
 16
 39.770925
  C 1.075228 0.374312 0.611062
  C 2.409837 0.319599 0.024451
  H 2.996283 1.218370 -0.075600
  C 2.992941 -0.943851 -0.402993
  C 4.001185 -0.972087 -1.389619
  C 5.008788 -1.002930 -2.173557
  C 4.968313 -0.950827 -3.677202
  H 3.950814 -0.887781 -4.043699
  H 6.021160 -1.073254 -1.777252
  H 0.797585 1.384160 0.894566
  H 1.003469 -0.273353 1.489203
  H 0.331850 -0.018105 -0.086468
  H 2.281317 -1.772529 -0.469309
  H 3.695378 -1.215599 0.424436
  H 5.445897 -1.843234 -4.077432
  H 5.530491 -0.084673 -4.014770
 16
 39.343095
  C 1.090129 0.389060 0.639249
  C 2.413369 0.335126 0.035688
  H 2.991982 1.234766 -0.084815
  C 2.998160 -0.932040 -0.393482
  C 3.991658 -0.944293 -1.395924
  C 5.003754 -0.950135 -2.174878
  C 4.980760 -0.974887 -3.676096
  H 3.967151 -0.990242 -4.054362
  H 6.013746 -0.954106 -1.765822
  H 0.847321 1.381811 1.001056
  H 0.996720 -0.328896 1.458940
  H 0.330050 0.082341 -0.085241
  H 2.267737 -1.739801 -0.503868
  H 3.626522 -1.228821 0.473739
  H 5.513372 -1.854790 -4.025963
  H 5.494675 -0.095002 -4.052115
 16
 38.192963
  C 1.115197 0.373847 0.712579
  C 2.371275 0.349474 -0.025263
  H 2.844295 1.278312 -0.303174
  C 2.995957 -0.907770 -0.418122
  C 4.022537 -0.913046 -1.382781
  C 5.026637 -0.897745 -2.170325
  C 5.015254 -1.023611 -3.668335
  H 4.004616 -1.121443 -4.047959
  H 6.032060 -0.801345 -1.760642
  H 0.998725 1.295665 1.277881
  H 1.001086 -0.491485 1.364490
  H 0.275851 0.330577 0.009159
  H 2.254276 -1.693344 -0.620972
  H 3.488271 -1.310791 0.489274
  H 5.598719 -1.894529 -3.957416
  H 5.482351 -0.142672 -4.102286
