 25
 0.000000
  H 1.460480 0.168386 0.470298
  C 2.539583 0.149964 0.424111
  C 3.300134 0.617034 1.586260
  C 2.458564 1.090671 2.765296
  C 3.339250 1.555028 3.920852
  C 3.098827 -0.320027 -0.745990
  C 4.477413 -0.422460 -1.001434
  C 5.102847 -0.879011 -2.139637
  C 4.595268 -1.391400 -3.417039
  C 3.106119 -1.503085 -3.696073
  H 2.953859 -1.903090 -4.693219
  H 6.185381 -0.872861 -2.124385
  H 3.964950 1.431695 1.272912
  H 3.965148 -0.187787 1.923622
  H 1.815447 0.280345 3.113805
  H 1.815288 1.916762 2.456356
  H 3.974371 0.747091 4.276862
  H 2.724835 1.889251 4.753008
  H 3.974166 2.384827 3.618848
  H 2.414020 -0.630104 -1.518098
  H 5.134482 -0.102520 -0.204383
  H 5.057957 -2.378867 -3.553365
  H 5.058345 -0.772225 -4.198067
  H 2.625560 -0.528105 -3.649805
  H 2.625246 -2.175620 -2.988863
 25
 8.090226
  H 1.462097 0.200904 0.548011
  C 2.540584 0.164648 0.458150
  C 3.325104 0.625145 1.605749
  C 2.482046 1.102191 2.793857
  C 3.362572 1.566313 3.951087
  C 3.050678 -0.323934 -0.758758
  C 4.380427 -0.454604 -1.083881
  C 5.083461 -0.889661 -2.167858
  C 4.634342 -1.405459 -3.451751
  C 3.151790 -1.528103 -3.755764
  H 3.020578 -1.930858 -4.758046
  H 6.161496 -0.851434 -2.073194
  H 3.999875 1.439671 1.291188
  H 3.999457 -0.181128 1.941621
  H 1.837022 0.291515 3.137901
  H 1.837501 1.926200 2.482006
  H 3.997311 0.758114 4.306722
  H 2.748707 1.900586 4.783807
  H 3.997715 2.395910 3.649514
  H 2.305198 -0.616870 -1.488862
  H 4.802559 -0.090422 -0.176444
  H 5.126027 -2.382606 -3.579047
  H 5.125767 -0.787934 -4.219898
  H 2.661400 -0.559350 -3.720695
  H 2.662023 -2.203606 -3.060087
 25
 24.350778
  H 1.469778 0.209585 0.564693
  C 2.543452 0.166778 0.459018
  C 3.340599 0.624399 1.602320
  C 2.501261 1.098344 2.783712
  C 3.383592 1.560291 3.940429
  C 3.020296 -0.329816 -0.778321
  C 4.328145 -0.466079 -1.116852
  C 5.096005 -0.887865 -2.168023
  C 4.669704 -1.408334 -3.458716
  C 3.183062 -1.526295 -3.745683
  H 3.032513 -1.928228 -4.742159
  H 6.171758 -0.830760 -2.029449
  H 4.017018 1.438819 1.296235
  H 4.013934 -0.178611 1.943073
  H 1.853625 0.286388 3.126946
  H 1.856367 1.924704 2.470343
  H 4.017506 0.750577 4.295501
  H 2.770538 1.895011 4.774128
  H 4.019891 2.389710 3.639193
  H 2.210945 -0.602494 -1.459280
  H 4.527178 -0.083913 -0.164258
  H 5.160934 -2.383753 -3.590106
  H 5.158813 -0.795628 -4.230330
  H 2.697934 -0.554001 -3.699408
  H 2.700366 -2.195930 -3.037583
 25
 44.669962
  H 1.471273 0.219765 0.574961
  C 2.541568 0.176274 0.469254
  C 3.340791 0.628620 1.608137
  C 2.504254 1.105255 2.802017
  C 3.391525 1.560866 3.953519
  C 3.019240 -0.324374 -0.785718
  C 4.322380 -0.474175 -1.149698
  C 5.108177 -0.888847 -2.179926
  C 4.687016 -1.418188 -3.477706
  C 3.207520 -1.535907 -3.754974
  H 3.050885 -1.938668 -4.742942
  H 6.176572 -0.825534 -2.032816
  H 4.014890 1.439853 1.306963
  H 4.010440 -0.172125 1.945284
  H 1.859695 0.298079 3.145073
  H 1.864480 1.930350 2.495865
  H 4.025044 0.747853 4.303643
  H 2.783067 1.894857 4.789953
  H 4.029030 2.389702 3.650893
  H 2.165694 -0.579696 -1.432525
  H 4.344276 -0.083243 -0.173429
  H 5.178997 -2.396903 -3.607179
  H 5.173354 -0.804805 -4.254188
  H 2.724690 -0.563123 -3.705948
  H 2.729803 -2.200570 -3.039334
 25
 62.734344
  H 1.483450 0.290142 0.538047
  C 2.556197 0.234910 0.437462
  C 3.357896 0.660095 1.603645
  C 2.508306 1.098756 2.792885
  C 3.380659 1.510182 3.975727
  C 3.036344 -0.218612 -0.767196
  C 4.360216 -0.433892 -1.191129
  C 5.121926 -0.851172 -2.196524
  C 4.688687 -1.452561 -3.482254
  C 3.204283 -1.599181 -3.717816
  H 3.036209 -2.035146 -4.697752
  H 6.201668 -0.761447 -2.084187
  H 4.037974 1.478183 1.348946
  H 4.007614 -0.165299 1.919909
  H 1.847933 0.280302 3.097210
  H 1.876629 1.943584 2.500816
  H 4.003489 0.680406 4.308830
  H 2.759678 1.820744 4.813521
  H 4.029740 2.344452 3.711080
  H 2.180824 -0.437459 -1.423762
  H 4.222862 -0.037076 -0.196389
  H 5.188744 -2.421092 -3.601492
  H 5.142238 -0.839163 -4.268451
  H 2.708299 -0.628794 -3.690811
  H 2.750475 -2.261947 -2.979053
 25
 67.718827
  H 1.512141 0.355568 0.545302
  C 2.583110 0.292167 0.464806
  C 3.370626 0.689215 1.666959
  C 2.489950 1.100652 2.827030
  C 3.327106 1.491744 4.038385
  C 3.111794 -0.134463 -0.738441
  C 4.405074 -0.424353 -1.292780
  C 5.140851 -0.846445 -2.278306
  C 4.691122 -1.500483 -3.560747
  C 3.184253 -1.652397 -3.719178
  H 2.969545 -2.133652 -4.678517
  H 6.217769 -0.756800 -2.218406
  H 4.037563 1.525109 1.436418
  H 3.999872 -0.145654 1.995247
  H 1.828328 0.274762 3.099132
  H 1.866826 1.948362 2.533719
  H 3.942319 0.660169 4.370204
  H 2.685626 1.784302 4.862668
  H 3.978784 2.329342 3.805924
  H 2.309944 -0.338897 -1.461520
  H 4.241554 0.003155 -0.252541
  H 5.182408 -2.470995 -3.616844
  H 5.099953 -0.896793 -4.372023
  H 2.693452 -0.684627 -3.720228
  H 2.769182 -2.279451 -2.933810
 25
 75.829679
  H 1.569122 0.405984 0.525809
  C 2.632827 0.331678 0.456203
  C 3.395372 0.702144 1.685578
  C 2.472933 1.099818 2.843287
  C 3.277927 1.472008 4.092540
  C 3.160526 -0.075311 -0.736941
  C 4.420037 -0.405666 -1.359640
  C 5.152607 -0.838314 -2.340948
  C 4.682841 -1.533164 -3.595442
  C 3.174876 -1.693460 -3.701260
  H 2.937392 -2.196765 -4.618340
  H 6.214318 -0.738283 -2.307456
  H 4.077060 1.546621 1.475156
  H 4.023819 -0.149759 2.018410
  H 1.811628 0.279482 3.078974
  H 1.865480 1.942111 2.551417
  H 3.883318 0.634411 4.427396
  H 2.611770 1.751740 4.906715
  H 3.935146 2.313723 3.893367
  H 2.341985 -0.258921 -1.472211
  H 4.218122 0.052158 -0.285315
  H 5.179133 -2.504375 -3.631867
  H 5.059857 -0.956087 -4.434374
  H 2.678133 -0.724661 -3.719907
  H 2.785698 -2.292556 -2.883000
 25
 82.180901
  H 1.565400 0.501271 0.522829
  C 2.646743 0.404078 0.466307
  C 3.396374 0.719631 1.712696
  C 2.467380 1.102581 2.858534
  C 3.257496 1.419937 4.124466
  C 3.186154 0.013517 -0.745810
  C 4.425056 -0.357555 -1.415502
  C 5.148064 -0.810223 -2.390422
  C 4.672533 -1.567754 -3.606079
  C 3.173516 -1.765886 -3.686083
  H 2.929856 -2.327388 -4.595032
  H 6.238497 -0.681430 -2.378578
  H 4.095177 1.551288 1.540142
  H 4.000009 -0.148817 2.028658
  H 1.777665 0.281986 3.062777
  H 1.875116 1.976963 2.577575
  H 3.839057 0.561167 4.443941
  H 2.585597 1.690778 4.934753
  H 3.936249 2.251237 3.959496
  H 2.375843 -0.138712 -1.482925
  H 4.194602 0.141548 -0.319912
  H 5.184355 -2.527545 -3.607676
  H 5.023787 -1.019990 -4.473132
  H 2.658004 -0.810506 -3.741254
  H 2.809087 -2.333662 -2.834272
 25
 87.251993
  H 1.578711 0.590932 0.485621
  C 2.643248 0.475084 0.447620
  C 3.387802 0.731871 1.717060
  C 2.457009 1.101789 2.868836
  C 3.248135 1.359369 4.165562
  C 3.191818 0.104582 -0.775446
  C 4.422467 -0.301332 -1.469940
  C 5.150353 -0.779412 -2.434697
  C 4.682432 -1.602120 -3.601164
  C 3.165624 -1.837627 -3.649725
  H 2.920669 -2.444475 -4.518908
  H 6.220669 -0.623532 -2.440519
  H 4.107340 1.546694 1.582875
  H 3.963965 -0.154864 2.007537
  H 1.744460 0.293564 3.038587
  H 1.892440 1.996868 2.611249
  H 3.809014 0.467574 4.465837
  H 2.569897 1.622705 4.982985
  H 3.956646 2.185156 4.034827
  H 2.397536 -0.019581 -1.523292
  H 4.154552 0.247685 -0.364150
  H 5.218463 -2.554168 -3.563271
  H 5.015908 -1.084596 -4.502591
  H 2.628533 -0.897041 -3.743993
  H 2.822684 -2.367734 -2.762358
 25
 91.223471
  H 1.579633 0.676197 0.478735
  C 2.645351 0.542587 0.450599
  C 3.385572 0.741903 1.724191
  C 2.452337 1.098050 2.885910
  C 3.228131 1.292533 4.171404
  C 3.200002 0.188149 -0.794531
  C 4.418561 -0.251099 -1.515503
  C 5.142660 -0.750518 -2.464723
  C 4.671778 -1.637615 -3.591034
  C 3.165759 -1.901392 -3.603894
  H 2.919025 -2.547149 -4.435704
  H 6.229453 -0.568259 -2.491899
  H 4.127200 1.544331 1.621077
  H 3.942202 -0.167113 1.988296
  H 1.724746 0.307634 3.027116
  H 1.912733 2.009076 2.656592
  H 3.758363 0.391381 4.441284
  H 2.560326 1.542024 4.981370
  H 3.945668 2.093711 4.071140
  H 2.427962 0.091966 -1.557476
  H 4.129181 0.356137 -0.394160
  H 5.227534 -2.577440 -3.520120
  H 4.982776 -1.153312 -4.518314
  H 2.609432 -0.977278 -3.730284
  H 2.847807 -2.393808 -2.690935
 25
 93.911813
  H 1.567736 0.777201 0.466688
  C 2.632186 0.618228 0.447446
  C 3.375422 0.750528 1.727138
  C 2.449768 1.093073 2.891904
  C 3.232365 1.218406 4.199219
  C 3.191291 0.279093 -0.820063
  C 4.380948 -0.198947 -1.569667
  C 5.121936 -0.724010 -2.489312
  C 4.674581 -1.678222 -3.569363
  C 3.182771 -1.976217 -3.567697
  H 2.952292 -2.670664 -4.369844
  H 6.187201 -0.519332 -2.528088
  H 4.143256 1.532292 1.656741
  H 3.902909 -0.185462 1.958851
  H 1.689165 0.312320 3.001765
  H 1.935600 2.038406 2.689335
  H 3.736202 0.286004 4.441230
  H 2.564346 1.461360 5.020300
  H 3.980230 2.004715 4.131003
  H 2.434785 0.220221 -1.607206
  H 4.083239 0.501686 -0.427961
  H 5.247694 -2.603010 -3.454645
  H 4.970958 -1.231003 -4.521623
  H 2.603948 -1.070571 -3.739189
  H 2.876041 -2.432247 -2.627777
 25
 95.244692
  H 1.549388 0.863126 0.475367
  C 2.612482 0.673382 0.460337
  C 3.364202 0.749654 1.732112
  C 2.454048 1.094523 2.912445
  C 3.245014 1.158553 4.216221
  C 3.165102 0.338328 -0.831602
  C 4.300634 -0.178161 -1.617024
  C 5.081945 -0.704650 -2.494259
  C 4.684997 -1.713615 -3.549573
  C 3.202610 -2.053405 -3.564044
  H 3.007476 -2.783210 -4.339747
  H 6.144258 -0.469114 -2.517090
  H 4.155891 1.504503 1.683480
  H 3.861158 -0.206994 1.934464
  H 1.671438 0.341067 3.006242
  H 1.973849 2.058643 2.736995
  H 3.716672 0.205113 4.431199
  H 2.590917 1.402874 5.045157
  H 4.017011 1.918198 4.164360
  H 2.438962 0.351804 -1.646439
  H 4.015769 0.617070 -0.428889
  H 5.277609 -2.615602 -3.390395
  H 4.986547 -1.294006 -4.506613
  H 2.601639 -1.171191 -3.780305
  H 2.891731 -2.479578 -2.613570
 25
 88.816752
  H 1.549454 0.979351 0.474212
  C 2.610423 0.750126 0.461362
  C 3.365140 0.749223 1.731851
  C 2.465218 1.075138 2.925304
  C 3.254113 1.063642 4.218270
  C 3.155725 0.430213 -0.861001
  C 4.212089 -0.133195 -1.673259
  C 5.029761 -0.674970 -2.498723
  C 4.694179 -1.757340 -3.503826
  C 3.220027 -2.145907 -3.527760
  H 3.064257 -2.931426 -4.257979
  H 6.077945 -0.388178 -2.525712
  H 4.188091 1.479792 1.717012
  H 3.830069 -0.232130 1.893398
  H 1.660000 0.343414 2.991919
  H 2.017797 2.058247 2.789255
  H 3.696533 0.082300 4.395775
  H 2.601604 1.302044 5.067037
  H 4.054450 1.802294 4.191299
  H 2.451184 0.507131 -1.695979
  H 3.943709 0.853002 -0.452965
  H 5.309481 -2.630611 -3.275241
  H 5.005610 -1.385191 -4.483809
  H 2.599297 -1.300733 -3.812799
  H 2.900739 -2.515036 -2.561678
