19

H 1.401675306041163 0.13545316411567102 0.38846004002205314
C 2.471599 0.140321 0.400275
H 3.025201175597317 0.4817598055035812 1.2498891319859298
C 3.094519 -0.322246 -0.751479
C 4.470156 -0.413577 -0.979476
C 5.130316 -0.867893 -2.111975
C 4.619381 -1.389077 -3.411201
C 3.125412 -1.501692 -3.692789
C 2.886116 -2.062845 -5.091692
H 6.20031104457509 -0.8690311131335491 -2.1150261118048337
H 2.434694 -0.63959 -1.541385
H 5.104736 -0.086787 -0.165738
H 5.069941 -2.379791 -3.54125
H 5.070324 -0.763208 -4.189928
H 2.654068 -0.519537 -3.635428
H 2.65362 -2.171648 -2.972597
H 3.319908 -1.417112 -5.852126
H 1.818633 -2.139914 -5.284534
H 3.319463 -3.055296 -5.194916
