 23
 0.000000
  H 1.598480 0.051975 0.214605
  C 2.675842 0.057089 0.123960
  C 3.423126 -0.016171 1.422346
  C 2.481245 -0.083923 2.622919
  C 3.246518 -0.158174 3.938833
  C 3.211913 0.126195 -1.100737
  C 2.326688 0.194568 -2.312471
  H 1.281348 0.178227 -2.022883
  C 4.645093 0.138457 -1.317978
  C 5.243975 0.205472 -2.505719
  O 6.585554 0.216487 -2.700937
  H 4.072932 0.859834 1.528240
  H 4.072928 -0.898519 1.429023
  H 1.839702 -0.963018 2.528684
  H 1.839689 0.800196 2.628176
  H 3.878768 -1.043351 3.964501
  H 2.558348 -0.205637 4.779919
  H 3.878766 0.718504 4.063916
  H 2.522073 -0.648622 -2.974454
  H 2.522070 1.106874 -2.875402
  H 5.269115 0.088544 -0.433389
  H 4.721640 0.258626 -3.447739
  H 7.038816 0.168439 -1.849389
 23
 13.588299
  H 1.533367 0.053964 0.179385
  C 2.606381 0.058847 0.092825
  C 3.438454 -0.022391 1.532585
  C 2.487860 -0.089332 2.718817
  C 3.245547 -0.163830 4.039102
  C 3.199429 0.132402 -1.210720
  C 2.322846 0.200933 -2.425272
  H 1.274016 0.185027 -2.143366
  C 4.632507 0.142640 -1.392114
  C 5.260335 0.208742 -2.563673
  O 6.605705 0.217808 -2.724335
  H 4.083440 0.853430 1.629493
  H 4.083440 -0.903549 1.530352
  H 1.846300 -0.968167 2.619687
  H 1.846292 0.795075 2.719181
  H 3.877585 -1.049332 4.068541
  H 2.552110 -0.211041 4.875733
  H 3.877579 0.712740 4.167967
  H 2.521687 -0.643275 -3.084886
  H 2.521685 1.113980 -2.985730
  H 5.233399 0.091862 -0.492177
  H 4.761605 0.262594 -3.518085
  H 7.036830 0.169117 -1.861362
