 20
 0.000000
  C 1.007408 -0.071940 0.046771
  C 2.503502 -0.082399 0.026271
  C 3.219381 -0.595175 -0.980276
  C 4.657410 -0.605689 -1.000878
  C 5.377663 -1.121086 -2.012567
  C 6.816437 -1.130528 -2.031101
  C 7.534133 -1.642286 -3.036114
  C 9.024091 -1.661862 -3.074782
  H 0.644919 0.394431 0.962228
  H 0.612030 -1.087068 0.008351
  H 0.612048 0.493772 -0.796995
  H 3.003359 0.353316 0.881578
  H 2.708222 -1.028773 -1.831413
  H 5.161997 -0.170657 -0.146922
  H 4.873562 -1.556198 -2.866684
  H 7.322942 -0.695686 -1.177897
  H 7.034794 -2.078510 -3.892548
  H 9.458851 -1.208895 -2.185105
  H 9.383681 -1.115847 -3.948489
  H 9.382970 -2.689899 -3.146879
 20
 2.014275
  C 1.032676 -0.042750 0.077347
  C 2.525908 -0.065983 0.019882
  C 3.220378 -0.604133 -0.982370
  C 4.650800 -0.628151 -1.040607
  C 5.351943 -1.171408 -2.053028
  C 6.779677 -1.196578 -2.108834
  C 7.519930 -1.705224 -3.079243
  C 9.001577 -1.631064 -2.999965
  H 0.684349 0.445489 0.983920
  H 0.631569 -1.056499 0.056766
  H 0.623413 0.491989 -0.780325
  H 3.053023 0.385362 0.849695
  H 2.693906 -1.056307 -1.813828
  H 5.177606 -0.176883 -0.210306
  H 4.828086 -1.625169 -2.886931
  H 7.354846 -0.747306 -1.301245
  H 7.089256 -2.128830 -3.973888
  H 9.327523 -1.274232 -2.030698
  H 9.327966 -0.923076 -3.734809
  H 9.464077 -2.590918 -3.196372
 20
 5.735218
  C 1.046484 -0.017782 0.094930
  C 2.540027 -0.044383 0.011341
  C 3.218008 -0.614902 -0.986534
  C 4.653321 -0.642929 -1.071232
  C 5.333194 -1.214804 -2.073370
  C 6.764396 -1.245298 -2.155656
  C 7.520012 -1.766235 -3.114882
  C 8.987619 -1.620988 -2.955667
  H 0.713186 0.498352 0.990516
  H 0.645732 -1.029912 0.111900
  H 0.623199 0.488027 -0.771249
  H 3.081058 0.431813 0.816009
  H 2.675675 -1.092128 -1.793160
  H 5.197769 -0.166430 -0.265042
  H 4.796719 -1.692669 -2.880542
  H 7.383551 -0.779216 -1.399740
  H 7.129649 -2.168795 -4.037233
  H 9.242844 -1.414626 -1.914651
  H 9.233271 -0.712102 -3.498416
  H 9.560220 -2.477832 -3.298402
 20
 8.879188
  C 1.065173 0.002814 0.097628
  C 2.555943 -0.020435 -0.001384
  C 3.225496 -0.623202 -0.989425
  C 4.655490 -0.645219 -1.089477
  C 5.328225 -1.250995 -2.084213
  C 6.760335 -1.283054 -2.178038
  C 7.515379 -1.824467 -3.127371
  C 8.972219 -1.600833 -2.934138
  H 0.740426 0.547299 0.977085
  H 0.670161 -1.006720 0.153313
  H 0.631296 0.474802 -0.778267
  H 3.103499 0.485392 0.779928
  H 2.675803 -1.131132 -1.774260
  H 5.206685 -0.139783 -0.306214
  H 4.781536 -1.761014 -2.870814
  H 7.399748 -0.781976 -1.440448
  H 7.135779 -2.216400 -4.056626
  H 9.213226 -1.624283 -1.869714
  H 9.089249 -0.557010 -3.215296
  H 9.631255 -2.287516 -3.455543
 20
 12.083943
  C 1.088055 0.013325 0.096907
  C 2.567436 0.002872 -0.017317
  C 3.231082 -0.628797 -0.992176
  C 4.663794 -0.638991 -1.108944
  C 5.329964 -1.273250 -2.088965
  C 6.754388 -1.294150 -2.198141
  C 7.505983 -1.852124 -3.135407
  C 8.954842 -1.585956 -2.905849
  H 0.769286 0.585417 0.959332
  H 0.703726 -1.002273 0.194949
  H 0.638082 0.451729 -0.793831
  H 3.119713 0.544674 0.742198
  H 2.678044 -1.168722 -1.749182
  H 5.219967 -0.099451 -0.350025
  H 4.780571 -1.816891 -2.847207
  H 7.399356 -0.748334 -1.487593
  H 7.128548 -2.249263 -4.066260
  H 9.220367 -1.861719 -1.881120
  H 8.960428 -0.498872 -2.913222
  H 9.652451 -2.067965 -3.582350
 20
 14.614908
  C 1.089796 0.020523 0.109658
  C 2.573510 0.023357 -0.025725
  C 3.230844 -0.624445 -0.992459
  C 4.663184 -0.623315 -1.128772
  C 5.323694 -1.275263 -2.101144
  C 6.746520 -1.281711 -2.230170
  C 7.510699 -1.864160 -3.151837
  C 8.954912 -1.577941 -2.879671
  H 0.775715 0.610493 0.962239
  H 0.716848 -1.000313 0.238009
  H 0.620804 0.432429 -0.788680
  H 3.131475 0.590649 0.713712
  H 2.673647 -1.188848 -1.728314
  H 5.223826 -0.059900 -0.392452
  H 4.772113 -1.844200 -2.837470
  H 7.413265 -0.715131 -1.548897
  H 7.160050 -2.322040 -4.050585
  H 9.250122 -2.063471 -1.945333
  H 8.875878 -0.512160 -2.646764
  H 9.665821 -1.852073 -3.649546
 20
 20.384959
  C 1.098957 0.037978 0.111794
  C 2.584110 0.036190 -0.031368
  C 3.234578 -0.625457 -0.993175
  C 4.665465 -0.631025 -1.133988
  C 5.319303 -1.297678 -2.102083
  C 6.740624 -1.303316 -2.237821
  C 7.513992 -1.892895 -3.149319
  C 8.939227 -1.548612 -2.860642
  H 0.790450 0.639129 0.958935
  H 0.725709 -0.977001 0.254412
  H 0.627277 0.438540 -0.786271
  H 3.147234 0.611258 0.698928
  H 2.671502 -1.198470 -1.720237
  H 5.233716 -0.056236 -0.404154
  H 4.762307 -1.874149 -2.829804
  H 7.439600 -0.735453 -1.580464
  H 7.188096 -2.368218 -4.055191
  H 9.293362 -2.144890 -2.012239
  H 8.753896 -0.535000 -2.468838
  H 9.650986 -1.647021 -3.668391
 20
 27.141935
  C 1.104521 0.045200 0.115415
  C 2.588704 0.046078 -0.033801
  C 3.235802 -0.621176 -0.993915
  C 4.663609 -0.625438 -1.139752
  C 5.315269 -1.302639 -2.104276
  C 6.736134 -1.302477 -2.246975
  C 7.517508 -1.897449 -3.149439
  C 8.931674 -1.537146 -2.846462
  H 0.797694 0.654350 0.961954
  H 0.736066 -0.968988 0.268164
  H 0.629839 0.435772 -0.783523
  H 3.153074 0.627023 0.691466
  H 2.670560 -1.200006 -1.713119
  H 5.235108 -0.040109 -0.417937
  H 4.756823 -1.882580 -2.825358
  H 7.471707 -0.727645 -1.606805
  H 7.207707 -2.414223 -4.035455
  H 9.346366 -2.226361 -2.087259
  H 8.666830 -0.583903 -2.324144
  H 9.623052 -1.485487 -3.669391
 20
 35.122292
  C 1.106395 0.048177 0.124534
  C 2.590670 0.048625 -0.029456
  C 3.234622 -0.622000 -0.989236
  C 4.662399 -0.612433 -1.150817
  C 5.309718 -1.291783 -2.115207
  C 6.730997 -1.287063 -2.266329
  C 7.526381 -1.889120 -3.154143
  C 8.933754 -1.537602 -2.821446
  H 0.801921 0.660993 0.965481
  H 0.738287 -0.964190 0.283748
  H 0.627846 0.433175 -0.774796
  H 3.157993 0.636920 0.689964
  H 2.670705 -1.205496 -1.695253
  H 5.236427 -0.019091 -0.435968
  H 4.747855 -1.884091 -2.832212
  H 7.500039 -0.709048 -1.639119
  H 7.226023 -2.452140 -4.015064
  H 9.385060 -2.288401 -2.158306
  H 8.605366 -0.645555 -2.197027
  H 9.604799 -1.362902 -3.652944
 20
 44.188569
  C 1.109665 0.047508 0.135966
  C 2.593018 0.054817 -0.028266
  C 3.233501 -0.613508 -0.992266
  C 4.659100 -0.605877 -1.156065
  C 5.303829 -1.284126 -2.125329
  C 6.723377 -1.270822 -2.282729
  C 7.533065 -1.879215 -3.155387
  C 8.934465 -1.536852 -2.804020
  H 0.807441 0.659216 0.981089
  H 0.746543 -0.966549 0.295949
  H 0.624208 0.430804 -0.759875
  H 3.162612 0.643651 0.687659
  H 2.666085 -1.197493 -1.699694
  H 5.235272 -0.013998 -0.441688
  H 4.741425 -1.872376 -2.836859
  H 7.532057 -0.700120 -1.663717
  H 7.246261 -2.495441 -3.985367
  H 9.413174 -2.327783 -2.225201
  H 8.553366 -0.700445 -2.094852
  H 9.588579 -1.257846 -3.626140
 20
 55.129609
  C 1.107999 0.050896 0.136632
  C 2.592987 0.057894 -0.024194
  C 3.233624 -0.605850 -0.992018
  C 4.659149 -0.613566 -1.141164
  C 5.303151 -1.286908 -2.115720
  C 6.723706 -1.272888 -2.268550
  C 7.532507 -1.879733 -3.141560
  C 8.929658 -1.528824 -2.806855
  H 0.806219 0.653323 0.982768
  H 0.744681 -0.964029 0.286736
  H 0.623278 0.442891 -0.756971
  H 3.161687 0.638796 0.699491
  H 2.667619 -1.175210 -1.706001
  H 5.236963 -0.033052 -0.414568
  H 4.740476 -1.867776 -2.832766
  H 7.583402 -0.714320 -1.658646
  H 7.255001 -2.502773 -3.968776
  H 9.452241 -2.332623 -2.278032
  H 8.513947 -0.714984 -2.043231
  H 9.551523 -1.192164 -3.632754
 20
 64.418924
  C 1.106096 0.056103 0.139890
  C 2.590563 0.063382 -0.022303
  C 3.231750 -0.594653 -0.993287
  C 4.658702 -0.628577 -1.125485
  C 5.303576 -1.296288 -2.103734
  C 6.721119 -1.280148 -2.260845
  C 7.535800 -1.879513 -3.133049
  C 8.936671 -1.518003 -2.808675
  H 0.804197 0.652354 0.993953
  H 0.742434 -0.958188 0.280759
  H 0.622050 0.455027 -0.746901
  H 3.162790 0.636272 0.710298
  H 2.663741 -1.150504 -1.721227
  H 5.233032 -0.067589 -0.392909
  H 4.737546 -1.869146 -2.826810
  H 7.618645 -0.727683 -1.658405
  H 7.263751 -2.506211 -3.960724
  H 9.487047 -2.324174 -2.318436
  H 8.484698 -0.726008 -2.003086
  H 9.533411 -1.128086 -3.630459
 20
 72.078177
  C 1.101806 0.058647 0.145150
  C 2.590012 0.049886 -0.006017
  C 3.232647 -0.604407 -0.979302
  C 4.655412 -0.615288 -1.127518
  C 5.300219 -1.278275 -2.109390
  C 6.718231 -1.272728 -2.259668
  C 7.541166 -1.871386 -3.128786
  C 8.944943 -1.523308 -2.812550
  H 0.801028 0.651096 0.996154
  H 0.723580 -0.961473 0.279019
  H 0.627257 0.467567 -0.743901
  H 3.155975 0.609220 0.722076
  H 2.667907 -1.160126 -1.703153
  H 5.234796 -0.045289 -0.390418
  H 4.733449 -1.845456 -2.834674
  H 7.653112 -0.718668 -1.645227
  H 7.266839 -2.497943 -3.956526
  H 9.501731 -2.341408 -2.353969
  H 8.479613 -0.730851 -1.955157
  H 9.528556 -1.102809 -3.626923
 20
 80.601854
  C 1.101061 0.056289 0.152524
  C 2.588384 0.041220 0.003728
  C 3.228073 -0.605210 -0.974832
  C 4.652522 -0.608256 -1.131601
  C 5.296848 -1.264715 -2.119396
  C 6.712228 -1.268931 -2.264509
  C 7.550303 -1.867020 -3.121485
  C 8.954462 -1.522882 -2.814791
  H 0.799933 0.646266 1.012352
  H 0.718027 -0.958034 0.275914
  H 0.633754 0.472799 -0.728441
  H 3.164235 0.599792 0.746029
  H 2.659816 -1.157862 -1.704972
  H 5.227271 -0.049473 -0.399590
  H 4.727143 -1.825684 -2.847486
  H 7.678856 -0.711820 -1.624498
  H 7.276381 -2.495970 -3.948795
  H 9.520450 -2.350041 -2.384592
  H 8.467522 -0.733092 -1.898582
  H 9.527163 -1.069963 -3.622455
