 17
 0.000000
  C 0.973891 0.131063 0.377809
  C 2.431024 0.084913 0.264865
  H 3.022684 0.421665 1.103164
  C 3.071592 -0.367436 -0.860631
  C 4.463375 -0.406622 -0.959786
  C 5.189664 -0.850430 -2.067768
  C 4.597592 -1.353874 -3.323009
  H 3.518624 -1.354210 -3.323639
  O 6.494380 -0.846191 -2.059630
  H 0.645632 0.516555 1.336638
  H 0.551102 -0.864526 0.224698
  H 0.552220 0.744596 -0.421694
  H 2.467755 -0.700728 -1.689845
  H 5.025789 -0.061565 -0.101261
  H 4.968837 -2.362946 -3.509871
  H 4.968767 -0.753476 -4.155320
  H 6.908056 -0.517848 -1.240355
 17
 8.003606
  C 0.865940 0.141567 0.403805
  C 2.481037 0.086797 0.269766
  H 3.074966 0.422401 1.105303
  C 3.107474 -0.366304 -0.857656
  C 4.499621 -0.409730 -0.967438
  C 5.217567 -0.856351 -2.082553
  C 4.615364 -1.357404 -3.331790
  H 3.535183 -1.354381 -3.323966
  O 6.521084 -0.855830 -2.083841
  H 0.549845 0.527552 1.363941
  H 0.445589 -0.852173 0.253950
  H 0.446772 0.756092 -0.392042
  H 2.494961 -0.697894 -1.682687
  H 5.069784 -0.066190 -0.112708
  H 4.981891 -2.367315 -3.521282
  H 4.981777 -0.758206 -4.166587
  H 6.942926 -0.528256 -1.266554
 17
 24.983009
  C 0.761651 0.147575 0.418326
  C 2.535753 0.088390 0.274341
  H 3.115160 0.425347 1.113485
  C 3.136434 -0.363041 -0.848904
  C 4.530854 -0.411036 -0.970320
  C 5.240183 -0.861518 -2.095482
  C 4.625889 -1.359050 -3.335804
  H 3.544157 -1.351789 -3.317032
  O 6.538984 -0.864608 -2.106393
  H 0.470562 0.533734 1.379029
  H 0.365939 -0.846980 0.272119
  H 0.367426 0.765435 -0.375409
  H 2.512844 -0.692501 -1.668747
  H 5.109981 -0.069077 -0.119639
  H 4.986476 -2.370213 -3.528851
  H 4.986143 -0.761289 -4.174043
  H 6.971275 -0.537984 -1.291756
 17
 43.851106
  C 0.645687 0.156936 0.441069
  C 2.579338 0.095662 0.293196
  H 3.142898 0.436827 1.143109
  C 3.171641 -0.363252 -0.848684
  C 4.567720 -0.415282 -0.980473
  C 5.266208 -0.867149 -2.109586
  C 4.637444 -1.362882 -3.345244
  H 3.556780 -1.351586 -3.315906
  O 6.568638 -0.873352 -2.129005
  H 0.377117 0.546174 1.409595
  H 0.275793 -0.849204 0.296092
  H 0.277652 0.784242 -0.359713
  H 2.541681 -0.690646 -1.663504
  H 5.153713 -0.075331 -0.134900
  H 4.992192 -2.375758 -3.542341
  H 4.991554 -0.766528 -4.187566
  H 7.009559 -0.548658 -1.319536
 17
 60.333058
  C 0.545054 0.150260 0.423331
  C 2.641375 0.103961 0.315222
  H 3.144012 0.457866 1.196904
  C 3.207004 -0.356961 -0.831510
  C 4.589409 -0.414975 -0.978795
  C 5.266276 -0.867005 -2.109075
  C 4.614587 -1.358953 -3.335406
  H 3.535081 -1.340760 -3.288173
  O 6.570303 -0.878727 -2.143444
  H 0.336790 0.544957 1.405410
  H 0.273383 -0.887682 0.270042
  H 0.275862 0.794787 -0.405428
  H 2.568114 -0.680557 -1.636999
  H 5.185049 -0.078405 -0.141817
  H 4.959240 -2.374228 -3.539460
  H 4.958206 -0.765337 -4.184269
  H 7.026401 -0.557146 -1.343152
 17
 76.803546
  C 0.426541 0.152274 0.424449
  C 2.683283 0.109317 0.333943
  H 3.149051 0.466833 1.226473
  C 3.232362 -0.351515 -0.812915
  C 4.624954 -0.416591 -0.980687
  C 5.285409 -0.871693 -2.121452
  C 4.618222 -1.358913 -3.334268
  H 3.537525 -1.335964 -3.271794
  O 6.579806 -0.888751 -2.173590
  H 0.272356 0.546050 1.405280
  H 0.222427 -0.884039 0.275597
  H 0.227435 0.799817 -0.399459
  H 2.581287 -0.673243 -1.613917
  H 5.233464 -0.082239 -0.150362
  H 4.955643 -2.375054 -3.542929
  H 4.952678 -0.766927 -4.187356
  H 7.050132 -0.567424 -1.377237
 17
 91.216588
  C 0.309822 0.158619 0.436923
  C 2.726192 0.114349 0.350764
  H 3.174705 0.475641 1.254361
  C 3.259381 -0.345148 -0.792777
  C 4.656159 -0.415513 -0.977061
  C 5.305963 -0.874655 -2.130069
  C 4.618817 -1.363518 -3.345308
  H 3.541111 -1.337199 -3.271905
  O 6.622080 -0.896853 -2.197683
  H 0.186390 0.556615 1.429184
  H 0.140005 -0.896541 0.286152
  H 0.146768 0.819136 -0.400966
  H 2.601850 -0.664190 -1.586618
  H 5.274047 -0.083133 -0.152756
  H 4.949944 -2.381419 -3.558012
  H 4.945411 -0.772573 -4.202641
  H 7.101294 -0.578590 -1.410232
 17
 100.432404
  C 0.225350 0.142011 0.377187
  C 2.802851 0.125228 0.403287
  H 3.119456 0.501545 1.350580
  C 3.305473 -0.324643 -0.715188
  C 4.708347 -0.406891 -0.950513
  C 5.295338 -0.871548 -2.128812
  C 4.580077 -1.358429 -3.330279
  H 3.505716 -1.327212 -3.229604
  O 6.593856 -0.913162 -2.258636
  H 0.130131 0.539238 1.371128
  H 0.154280 -0.924713 0.222670
  H 0.170343 0.810896 -0.469115
  H 2.650451 -0.645862 -1.510136
  H 5.352771 -0.076883 -0.143105
  H 4.899353 -2.378305 -3.544594
  H 4.885356 -0.763378 -4.190836
  H 7.088122 -0.598619 -1.488323
 17
 106.237520
  C 0.143651 0.118003 0.323029
  C 2.878051 0.143228 0.441108
  H 3.082149 0.529117 1.410126
  C 3.358331 -0.299689 -0.663904
  C 4.780834 -0.404924 -0.947048
  C 5.296271 -0.867197 -2.114760
  C 4.526626 -1.344351 -3.298184
  H 3.455638 -1.296262 -3.162381
  O 6.614998 -0.933503 -2.299603
  H 0.042879 0.515410 1.318588
  H 0.133534 -0.946957 0.169977
  H 0.143235 0.785924 -0.520508
  H 2.694872 -0.619903 -1.460027
  H 5.450098 -0.087002 -0.165512
  H 4.819951 -2.369452 -3.519425
  H 4.809796 -0.750644 -4.165950
  H 7.133495 -0.629041 -1.549099
 17
 110.039693
  C 0.046527 0.109279 0.308313
  C 2.938032 0.158768 0.469640
  H 3.090507 0.547520 1.444742
  C 3.407046 -0.284035 -0.636992
  C 4.815069 -0.401684 -0.942464
  C 5.300776 -0.871116 -2.122332
  C 4.510030 -1.340681 -3.291800
  H 3.440324 -1.282370 -3.139100
  O 6.615227 -0.952867 -2.335827
  H -0.050739 0.503923 1.297371
  H 0.066638 -0.950897 0.158334
  H 0.070983 0.775384 -0.529813
  H 2.740084 -0.602565 -1.430549
  H 5.499766 -0.088571 -0.168407
  H 4.789522 -2.368871 -3.515323
  H 4.784678 -0.748357 -4.163057
  H 7.159043 -0.648198 -1.579799
 17
 112.312309
  C -0.052069 0.096684 0.288482
  C 2.995517 0.176432 0.497543
  H 3.094762 0.568069 1.477807
  C 3.451158 -0.264300 -0.604863
  C 4.861403 -0.398722 -0.939474
  C 5.310300 -0.871892 -2.120863
  C 4.489102 -1.333367 -3.277622
  H 3.422841 -1.262069 -3.104965
  O 6.625294 -0.971534 -2.365666
  H -0.152134 0.493332 1.281525
  H -0.004272 -0.965085 0.140902
  H -0.007070 0.764584 -0.550112
  H 2.776002 -0.581189 -1.396350
  H 5.561639 -0.094110 -0.180039
  H 4.750717 -2.365501 -3.504466
  H 4.753463 -0.743451 -4.153631
  H 7.175777 -0.679383 -1.633452
 17
 113.693249
  C -0.150658 0.086878 0.267788
  C 3.051984 0.192013 0.530908
  H 3.101155 0.585106 1.513856
  C 3.498395 -0.249758 -0.573865
  C 4.894415 -0.395901 -0.934349
  C 5.311815 -0.875344 -2.128670
  C 4.465024 -1.329219 -3.267440
  H 3.402809 -1.248238 -3.073881
  O 6.618329 -0.988273 -2.403273
  H -0.252253 0.482082 1.256411
  H -0.078078 -0.971377 0.123879
  H -0.083301 0.754317 -0.566407
  H 2.817493 -0.564648 -1.360626
  H 5.610914 -0.096788 -0.186688
  H 4.712006 -2.363776 -3.497496
  H 4.716729 -0.740981 -4.147694
  H 7.196639 -0.694852 -1.667553
 17
 114.511427
  C -0.253704 0.076771 0.246367
  C 3.103443 0.206888 0.562540
  H 3.107983 0.600482 1.545293
  C 3.540469 -0.235033 -0.541788
  C 4.932441 -0.393912 -0.930859
  C 5.317387 -0.875999 -2.129489
  C 4.440299 -1.322500 -3.250566
  H 3.382044 -1.231388 -3.034281
  O 6.620546 -1.002030 -2.434303
  H -0.361430 0.472987 1.236201
  H -0.162562 -0.980328 0.105303
  H -0.169945 0.744607 -0.585902
  H 2.849400 -0.548219 -1.324440
  H 5.664965 -0.101330 -0.197841
  H 4.671761 -2.360097 -3.484673
  H 4.677984 -0.735896 -4.136223
  H 7.205233 -0.718879 -1.724036
 17
 115.019489
  C -0.365847 0.072099 0.238398
  C 3.147475 0.219589 0.589117
  H 3.125164 0.614082 1.572288
  C 3.577683 -0.224629 -0.519197
  C 4.956728 -0.393095 -0.930518
  C 5.318340 -0.880141 -2.139538
  C 4.419789 -1.319610 -3.243164
  H 3.366644 -1.220499 -3.008916
  O 6.610957 -1.015699 -2.465728
  H -0.480007 0.467987 1.225598
  H -0.268732 -0.984603 0.098954
  H -0.277672 0.739648 -0.593517
  H 2.877476 -0.535261 -1.294742
  H 5.702984 -0.105267 -0.208845
  H 4.638811 -2.358759 -3.480333
  H 4.646167 -0.735031 -4.132607
  H 7.221899 -0.731301 -1.751958
