 20
 0.000000
  C 1.049187 -0.113135 -0.038619
  C 2.545528 -0.135873 -0.038757
  C 3.260043 -1.266103 -0.045532
  C 4.698068 -1.288226 -0.045661
  C 5.417404 -2.424585 -0.052474
  C 6.856168 -2.444179 -0.052587
  C 7.573142 -3.572234 -0.059350
  C 9.063189 -3.613400 -0.059597
  H 0.688294 0.914919 -0.032459
  H 0.653452 -0.611705 0.846063
  H 0.653452 -0.601072 -0.929210
  H 3.045009 0.823963 -0.033008
  H 2.748323 -2.220583 -0.051251
  H 5.202602 -0.330232 -0.039925
  H 4.913450 -3.382816 -0.058218
  H 7.363316 -1.487353 -0.046860
  H 7.074529 -4.533364 -0.065105
  H 9.498290 -2.615441 -0.053612
  H 9.422072 -4.138268 -0.946354
  H 9.422072 -4.148855 0.820807
 20
 13.512723
  C 0.886375 -0.064956 -0.038330
  C 2.552809 -0.073790 -0.038384
  C 3.307436 -1.285577 -0.045648
  C 4.737267 -1.307557 -0.045778
  C 5.461122 -2.443090 -0.052586
  C 6.897010 -2.467849 -0.052731
  C 7.617080 -3.592539 -0.059472
  C 9.105850 -3.637615 -0.059742
  H 0.533333 0.960641 -0.032185
  H 0.515852 -0.573704 0.845553
  H 0.515851 -0.563079 -0.928246
  H 3.043993 0.883227 -0.032651
  H 2.785305 -2.231397 -0.051316
  H 5.242602 -0.350082 -0.040044
  H 4.956434 -3.400886 -0.058326
  H 7.402492 -1.510210 -0.046998
  H 7.118105 -4.553240 -0.065225
  H 9.536293 -2.638504 -0.053753
  H 9.465784 -4.164424 -0.944371
  H 9.465789 -4.174990 0.818516
 20
 40.561788
  C 0.715888 -0.071627 -0.038369
  C 2.613896 -0.008009 -0.037989
  C 3.349727 -1.263563 -0.045516
  C 4.775620 -1.297148 -0.045718
  C 5.491777 -2.433536 -0.052529
  C 6.921882 -2.476958 -0.052789
  C 7.636243 -3.605145 -0.059548
  C 9.120285 -3.667377 -0.059922
  H 0.411480 0.950505 -0.032244
  H 0.461929 -0.603639 0.853372
  H 0.461926 -0.592918 -0.936425
  H 3.043849 0.957573 -0.032203
  H 2.794337 -2.178971 -0.051002
  H 5.291046 -0.347979 -0.040032
  H 4.977479 -3.382941 -0.058218
  H 7.432540 -1.523727 -0.047081
  H 7.127621 -4.558341 -0.065256
  H 9.551122 -2.673903 -0.053971
  H 9.476238 -4.200124 -0.940140
  H 9.476253 -4.210647 0.813871
 20
 69.967800
  C 0.514677 -0.086721 -0.038462
  C 2.699431 0.025238 -0.037791
  C 3.405251 -1.215098 -0.045224
  C 4.824915 -1.267992 -0.045541
  C 5.521487 -2.417317 -0.052428
  C 6.963720 -2.482899 -0.052824
  C 7.658226 -3.622882 -0.059650
  C 9.140423 -3.708112 -0.060147
  H 0.253358 0.946750 -0.032270
  H 0.336368 -0.624582 0.866522
  H 0.336369 -0.613697 -0.949823
  H 3.077752 1.020260 -0.031827
  H 2.838734 -2.136470 -0.050745
  H 5.356380 -0.318101 -0.039850
  H 4.985207 -3.368862 -0.058126
  H 7.495566 -1.528701 -0.047112
  H 7.129696 -4.575223 -0.065353
  H 9.591156 -2.713834 -0.054180
  H 9.488210 -4.248152 -0.943733
  H 9.488138 -4.258620 0.816817
 20
 94.974108
  C 0.279806 -0.094786 -0.038503
  C 2.792960 0.026261 -0.037783
  C 3.459952 -1.157806 -0.044876
  C 4.904620 -1.236671 -0.045355
  C 5.579847 -2.396525 -0.052310
  C 7.008766 -2.487177 -0.052863
  C 7.682167 -3.639865 -0.059769
  C 9.161538 -3.753911 -0.060425
  H 0.067600 0.959193 -0.032193
  H 0.142882 -0.630648 0.882237
  H 0.142879 -0.619590 -0.965602
  H 3.133221 1.039139 -0.031720
  H 2.901110 -2.083683 -0.050423
  H 5.450082 -0.297560 -0.039737
  H 5.035070 -3.328956 -0.057895
  H 7.551434 -1.550432 -0.047249
  H 7.141166 -4.573117 -0.065366
  H 9.629409 -2.774160 -0.054554
  H 9.497655 -4.299625 -0.941106
  H 9.497632 -4.310147 0.813653
 20
 111.088251
  C 0.069706 -0.105019 -0.038575
  C 2.858185 0.059082 -0.037586
  C 3.521160 -1.107854 -0.044574
  C 4.965972 -1.208050 -0.045169
  C 5.621360 -2.379892 -0.052193
  C 7.044816 -2.492672 -0.052881
  C 7.699384 -3.659419 -0.059871
  C 9.179055 -3.797678 -0.060693
  H -0.097501 0.949212 -0.032263
  H 0.004037 -0.639944 0.880105
  H 0.004046 -0.628908 -0.963604
  H 3.140600 1.088034 -0.031423
  H 2.972517 -2.046055 -0.050197
  H 5.523125 -0.272716 -0.039572
  H 5.061280 -3.307646 -0.057752
  H 7.603446 -1.561830 -0.047309
  H 7.139518 -4.589462 -0.065445
  H 9.663317 -2.822209 -0.054848
  H 9.505508 -4.349635 -0.942282
  H 9.505474 -4.360098 0.814159
 20
 121.689280
  C -0.144352 -0.095237 -0.038491
  C 2.915093 0.081506 -0.037454
  C 3.573570 -1.075455 -0.044378
  C 5.014893 -1.192523 -0.045095
  C 5.654716 -2.373090 -0.052176
  C 7.088364 -2.505186 -0.053015
  C 7.726619 -3.677513 -0.060029
  C 9.204500 -3.835842 -0.060865
  H -0.258245 0.959647 -0.032184
  H -0.149543 -0.633927 0.883703
  H -0.149548 -0.622865 -0.967062
  H 3.156104 1.119859 -0.031249
  H 3.028237 -2.015446 -0.050002
  H 5.577526 -0.267388 -0.039578
  H 5.084141 -3.292737 -0.057677
  H 7.656947 -1.585706 -0.047496
  H 7.158501 -4.593922 -0.065551
  H 9.702684 -2.869561 -0.055018
  H 9.522926 -4.390741 -0.940034
  H 9.522695 -4.401136 0.811463
 20
 128.117855
  C -0.371217 -0.059308 -0.038316
  C 2.964073 0.073680 -0.037486
  C 3.622463 -1.068311 -0.044309
  C 5.067792 -1.195480 -0.045054
  C 5.700094 -2.379613 -0.052151
  C 7.130464 -2.519549 -0.053101
  C 7.761140 -3.695950 -0.060147
  C 9.238717 -3.862914 -0.061098
  H -0.431718 1.006964 -0.031942
  H -0.337833 -0.594644 0.881592
  H -0.337797 -0.583606 -0.964561
  H 3.177188 1.116119 -0.031249
  H 3.081834 -2.006511 -0.049921
  H 5.633642 -0.273625 -0.039570
  H 5.123014 -3.298271 -0.057635
  H 7.705142 -1.601733 -0.047622
  H 7.183657 -4.615144 -0.065675
  H 9.742431 -2.900160 -0.055316
  H 9.553990 -4.420230 -0.941004
  H 9.553941 -4.430705 0.812135
 20
 131.738655
  C -0.602242 0.006244 -0.037815
  C 3.003546 0.048504 -0.037645
  C 3.665856 -1.082270 -0.044357
  C 5.115859 -1.211970 -0.045168
  C 5.745880 -2.396416 -0.052302
  C 7.175000 -2.537516 -0.053550
  C 7.803972 -3.715459 -0.060592
  C 9.278572 -3.884265 -0.061062
  H -0.614491 1.074126 -0.031489
  H -0.545564 -0.529877 0.884595
  H -0.545572 -0.518920 -0.966523
  H 3.194781 1.093850 -0.031458
  H 3.130315 -2.022018 -0.049930
  H 5.682164 -0.288474 -0.039808
  H 5.166822 -3.315908 -0.057744
  H 7.751917 -1.618363 -0.048020
  H 7.227048 -4.631454 -0.066258
  H 9.784177 -2.921320 -0.055018
  H 9.592935 -4.442063 -0.940878
  H 9.592155 -4.452719 0.812366
 20
 133.445499
  C -0.828474 0.087931 -0.037430
  C 3.039068 0.017759 -0.037801
  C 3.707385 -1.107423 -0.044451
  C 5.156899 -1.234674 -0.045170
  C 5.789199 -2.418179 -0.052259
  C 7.217484 -2.556131 -0.053561
  C 7.848893 -3.733431 -0.060632
  C 9.324750 -3.899217 -0.061275
  H -0.815842 1.154079 -0.031116
  H -0.764814 -0.448018 0.883434
  H -0.764738 -0.437065 -0.964553
  H 3.218410 1.064166 -0.031597
  H 3.174720 -2.050861 -0.050026
  H 5.718983 -0.312333 -0.039840
  H 5.211012 -3.340775 -0.057695
  H 7.792172 -1.636391 -0.048122
  H 7.270219 -4.656132 -0.066272
  H 9.828605 -2.934930 -0.055336
  H 9.641074 -4.458182 -0.944068
  H 9.640703 -4.469020 0.815099
 20
 133.990652
  C -1.064490 0.201039 -0.036743
  C 3.063630 -0.039187 -0.038109
  C 3.738175 -1.153005 -0.044704
  C 5.192484 -1.271567 -0.045356
  C 5.831508 -2.450016 -0.052393
  C 7.264033 -2.580053 -0.053601
  C 7.902304 -3.752264 -0.060657
  C 9.381971 -3.909966 -0.061414
  H -1.040977 1.269172 -0.030397
  H -1.006776 -0.336610 0.884048
  H -1.006642 -0.325811 -0.964101
  H 3.231448 1.012683 -0.031863
  H 3.211959 -2.102310 -0.050312
  H 5.750096 -0.344269 -0.039980
  H 5.261864 -3.371694 -0.057820
  H 7.831540 -1.660050 -0.048203
  H 7.332843 -4.671731 -0.066218
  H 9.881573 -2.941914 -0.055501
  H 9.700911 -4.466150 -0.942157
  H 9.700748 -4.476917 0.812827
 20
 134.175909
  C -1.290681 0.319123 -0.036890
  C 3.084523 -0.089170 -0.038481
  C 3.766741 -1.199795 -0.044727
  C 5.225196 -1.308543 -0.045075
  C 5.871282 -2.481684 -0.052079
  C 7.306296 -2.602257 -0.054536
  C 7.952157 -3.769689 -0.061625
  C 9.432303 -3.917821 -0.061348
  H -1.273129 1.388285 -0.030861
  H -1.248572 -0.221946 0.888399
  H -1.248270 -0.209290 -0.965039
  H 3.246231 0.967220 -0.032370
  H 3.246171 -2.150811 -0.050188
  H 5.779191 -0.375135 -0.040164
  H 5.307966 -3.406792 -0.057337
  H 7.868758 -1.677376 -0.049300
  H 7.390138 -4.690591 -0.067547
  H 9.922992 -2.950948 -0.054777
  H 9.755457 -4.469399 -0.939836
  H 9.753534 -4.480665 0.811309
 20
 134.236588
  C -1.513490 0.462505 -0.034008
  C 3.098758 -0.153267 -0.037607
  C 3.793359 -1.257903 -0.043725
  C 5.246975 -1.350327 -0.044260
  C 5.906418 -2.517247 -0.051312
  C 7.341210 -2.622199 -0.055211
  C 8.000361 -3.782489 -0.062447
  C 9.485752 -3.914301 -0.062137
  H -1.525078 1.528334 -0.027470
  H -1.492459 -0.073979 0.882200
  H -1.492319 -0.070007 -0.965649
  H 3.249261 0.897246 -0.031755
  H 3.281842 -2.217745 -0.048811
  H 5.793683 -0.405237 -0.040016
  H 5.352754 -3.449530 -0.056158
  H 7.890622 -1.696052 -0.050488
  H 7.444133 -4.717325 -0.068357
  H 9.962921 -2.947099 -0.055627
  H 9.816154 -4.463828 -0.942901
  H 9.815039 -4.476460 0.814387
 20
 134.379125
  C -1.736598 0.624030 -0.036307
  C 3.100507 -0.221145 -0.037908
  C 3.809422 -1.320456 -0.042867
  C 5.262152 -1.395762 -0.042390
  C 5.937680 -2.556679 -0.049322
  C 7.371127 -2.643516 -0.057043
  C 8.044321 -3.795928 -0.064632
  C 9.529429 -3.909772 -0.062061
  H -1.780341 1.689583 -0.030565
  H -1.736835 0.085370 0.884013
  H -1.736250 0.093934 -0.961883
  H 3.243693 0.832888 -0.032526
  H 3.310439 -2.283396 -0.047388
  H 5.791032 -0.454612 -0.039838
  H 5.395448 -3.496300 -0.053755
  H 7.911871 -1.705504 -0.053113
  H 7.502796 -4.731400 -0.071306
  H 9.997962 -2.929607 -0.053904
  H 9.868007 -4.454847 -0.943531
  H 9.863407 -4.468298 0.813656
 20
 134.228287
  C -1.740672 0.622080 -0.034579
  C 3.100139 -0.226154 -0.039288
  C 3.805882 -1.319269 -0.045843
  C 5.262139 -1.395219 -0.046284
  C 5.935569 -2.554238 -0.053294
  C 7.371217 -2.642114 -0.053782
  C 8.043429 -3.794951 -0.060725
  C 9.527434 -3.909420 -0.061408
  H -1.775714 1.688660 -0.028079
  H -1.724568 0.082910 0.886281
  H -1.724792 0.094071 -0.961857
  H 3.239323 0.829199 -0.032898
  H 3.307871 -2.284543 -0.051675
  H 5.792176 -0.452601 -0.040565
  H 5.393689 -3.491954 -0.058978
  H 7.912537 -1.704280 -0.048103
  H 7.500513 -4.731846 -0.066391
  H 9.997042 -2.928864 -0.055329
  H 9.863081 -4.456084 -0.943364
  H 9.862973 -4.466797 0.813491
