 18
 0.000000
  C 0.891619 0.045362 0.351461
  C 2.361302 0.063616 0.053372
  H 3.007547 0.012491 0.917919
  C 2.931426 0.129517 -1.143583
  C 2.359750 0.206750 -2.530932
  C 0.849865 0.219551 -2.749187
  C 0.530459 0.302581 -4.239264
  H 4.014879 0.131510 -1.177534
  H 0.710645 -0.014566 1.422736
  H 0.411501 -0.816623 -0.106599
  H 0.407137 0.951654 -0.004604
  H 2.771593 -0.640665 -3.092695
  H 2.772237 1.110827 -2.995535
  H 0.401960 1.079038 -2.250882
  H 0.401074 -0.689482 -2.349355
  H 0.945221 1.210244 -4.673367
  H -0.546245 0.311764 -4.395310
  H 0.944399 -0.551725 -4.771358
 18
 3.822084
  C 0.884734 0.068029 0.383565
  C 2.319077 0.070831 0.050093
  H 2.986555 0.028471 0.904948
  C 2.903034 0.124278 -1.140470
  C 2.360603 0.197082 -2.539766
  C 0.850321 0.230534 -2.757015
  C 0.525156 0.308185 -4.245187
  H 3.988319 0.109383 -1.149611
  H 0.706126 -0.021229 1.450524
  H 0.614377 -0.826574 -0.130453
  H 0.339865 0.927354 0.004711
  H 2.769667 -0.659798 -3.088596
  H 2.793670 1.090389 -3.005509
  H 0.421754 1.099052 -2.257613
  H 0.390618 -0.668023 -2.345063
  H 0.954676 1.205797 -4.685746
  H -0.551313 0.333240 -4.399597
  H 0.925875 -0.556025 -4.771393
 18
 12.061410
  C 0.861239 0.079806 0.394584
  C 2.306743 0.080835 0.049879
  H 2.989655 0.051337 0.903187
  C 2.894014 0.121598 -1.138464
  C 2.356513 0.187118 -2.534935
  C 0.847162 0.244860 -2.753093
  C 0.523345 0.313723 -4.241636
  H 3.985902 0.090007 -1.141907
  H 0.670553 -0.033364 1.449950
  H 0.807742 -0.829795 -0.153321
  H 0.279362 0.883937 -0.021708
  H 2.753086 -0.682213 -3.073677
  H 2.804349 1.068487 -3.009487
  H 0.437516 1.124828 -2.262364
  H 0.369829 -0.638923 -2.332398
  H 0.970427 1.197842 -4.690882
  H -0.552092 0.357804 -4.396730
  H 0.907949 -0.563065 -4.758405
 18
 22.514311
  C 0.842418 0.088613 0.382989
  C 2.295673 0.083958 0.044491
  H 2.974897 0.059907 0.908299
  C 2.894440 0.116927 -1.140055
  C 2.359315 0.178838 -2.533020
  C 0.852368 0.253479 -2.741472
  C 0.519706 0.317165 -4.226361
  H 3.991607 0.076473 -1.138468
  H 0.629288 -0.038027 1.430519
  H 0.967714 -0.816736 -0.179273
  H 0.236257 0.849377 -0.067359
  H 2.742734 -0.697269 -3.066203
  H 2.813996 1.050605 -3.014119
  H 0.458894 1.139422 -2.254556
  H 0.366751 -0.618611 -2.312021
  H 0.975194 1.191919 -4.683861
  H -0.555488 0.374298 -4.374334
  H 0.889297 -0.567295 -4.739726
 18
 33.560131
  C 0.830690 0.094855 0.399162
  C 2.287113 0.079895 0.044855
  H 2.959653 0.057975 0.897835
  C 2.894071 0.111252 -1.139275
  C 2.360706 0.173345 -2.539798
  C 0.857078 0.259496 -2.745336
  C 0.522401 0.320867 -4.227997
  H 3.974292 0.066432 -1.131654
  H 0.617548 -0.033370 1.448528
  H 1.096403 -0.806713 -0.157072
  H 0.197546 0.818099 -0.082339
  H 2.735457 -0.706776 -3.070596
  H 2.820124 1.038714 -3.024041
  H 0.471865 1.153855 -2.259308
  H 0.363692 -0.608129 -2.310063
  H 0.985016 1.189970 -4.689165
  H -0.552344 0.387052 -4.374027
  H 0.883166 -0.568489 -4.738923
 18
 42.239924
  C 0.819130 0.086813 0.417019
  C 2.277430 0.077723 0.045080
  H 2.948930 0.065040 0.908556
  C 2.895394 0.106635 -1.135993
  C 2.368246 0.168510 -2.542083
  C 0.854520 0.272086 -2.751787
  C 0.516532 0.327949 -4.244359
  H 3.988153 0.054899 -1.117308
  H 0.624319 -0.013935 1.465958
  H 1.204490 -0.802687 -0.098881
  H 0.157384 0.749115 -0.102423
  H 2.737315 -0.723812 -3.070001
  H 2.842594 1.029952 -3.033655
  H 0.479730 1.178894 -2.270766
  H 0.349187 -0.590590 -2.307859
  H 0.990509 1.190741 -4.713783
  H -0.560863 0.406557 -4.391432
  H 0.866955 -0.571481 -4.750878
 18
 48.903234
  C 0.806314 0.089985 0.412911
  C 2.263028 0.071003 0.025514
  H 2.916081 0.051887 0.884444
  C 2.895713 0.102902 -1.156642
  C 2.376925 0.166974 -2.547533
  C 0.872824 0.277239 -2.743178
  C 0.524082 0.331432 -4.226788
  H 3.974621 0.051001 -1.131352
  H 0.624348 0.026994 1.467385
  H 1.282844 -0.806809 -0.059578
  H 0.114977 0.693198 -0.150064
  H 2.735186 -0.724069 -3.075019
  H 2.850500 1.021957 -3.039387
  H 0.507038 1.189402 -2.259089
  H 0.368363 -0.582229 -2.292108
  H 0.997569 1.189157 -4.700368
  H -0.551026 0.414936 -4.363823
  H 0.865293 -0.569720 -4.734062
 18
 53.693656
  C 0.803633 0.091275 0.443660
  C 2.262975 0.060432 0.035287
  H 2.919480 0.038539 0.899209
  C 2.895979 0.098353 -1.146703
  C 2.374237 0.167027 -2.557984
  C 0.871760 0.285353 -2.760571
  C 0.525885 0.337766 -4.248463
  H 3.987353 0.043318 -1.115007
  H 0.633925 0.078425 1.505115
  H 1.357420 -0.817476 0.016866
  H 0.088518 0.614915 -0.150819
  H 2.727641 -0.726581 -3.087126
  H 2.851176 1.017511 -3.048619
  H 0.511083 1.198852 -2.281095
  H 0.364868 -0.566627 -2.310575
  H 1.008554 1.197367 -4.725953
  H -0.556161 0.427104 -4.389814
  H 0.864725 -0.568934 -4.753606
 18
 57.847769
  C 0.796917 0.098414 0.416207
  C 2.258810 0.051550 0.024844
  H 2.907215 0.030629 0.915360
  C 2.912595 0.091588 -1.153662
  C 2.396844 0.163387 -2.559579
  C 0.882830 0.287024 -2.747335
  C 0.518693 0.343304 -4.230850
  H 3.982842 0.036910 -1.111183
  H 0.612497 0.122759 1.464910
  H 1.417616 -0.821036 0.038527
  H 0.075198 0.563863 -0.221648
  H 2.742430 -0.723440 -3.089735
  H 2.873805 1.010496 -3.049701
  H 0.529876 1.200582 -2.260750
  H 0.375811 -0.570556 -2.289276
  H 0.993967 1.196697 -4.709268
  H -0.556962 0.434981 -4.358305
  H 0.848441 -0.561172 -4.741261
 18
 61.272589
  C 0.801344 0.103277 0.436313
  C 2.255641 0.038774 0.032471
  H 2.906379 0.026001 0.913593
  C 2.906168 0.086307 -1.151617
  C 2.389714 0.162328 -2.562227
  C 0.887067 0.288837 -2.754522
  C 0.528317 0.347002 -4.242620
  H 3.984154 0.030170 -1.108789
  H 0.620526 0.160125 1.491578
  H 1.465837 -0.823167 0.089429
  H 0.066218 0.506606 -0.218145
  H 2.734023 -0.726359 -3.096454
  H 2.868575 1.009777 -3.049879
  H 0.534938 1.203392 -2.267739
  H 0.380101 -0.565187 -2.300684
  H 1.011511 1.207372 -4.722595
  H -0.557202 0.441741 -4.375681
  H 0.860215 -0.562312 -4.754891
 18
 64.087817
  C 0.804098 0.109374 0.449661
  C 2.262140 0.027329 0.041708
  H 2.919588 0.023944 0.918360
  C 2.909039 0.083328 -1.148416
  C 2.393407 0.161255 -2.559697
  C 0.881672 0.293661 -2.761594
  C 0.531733 0.350981 -4.247493
  H 3.989824 0.023414 -1.107326
  H 0.621685 0.187169 1.490760
  H 1.512046 -0.829572 0.123599
  H 0.050541 0.459800 -0.229711
  H 2.737793 -0.730306 -3.095816
  H 2.878721 1.009858 -3.046182
  H 0.530510 1.207613 -2.280240
  H 0.368601 -0.558999 -2.310554
  H 1.015354 1.200665 -4.721109
  H -0.541100 0.448115 -4.385333
  H 0.861049 -0.553593 -4.753387
 18
 66.760440
  C 0.797865 0.126141 0.443702
  C 2.262377 0.015186 0.039747
  H 2.920931 0.017629 0.911433
  C 2.910841 0.080874 -1.155720
  C 2.393469 0.160207 -2.561466
  C 0.897327 0.290766 -2.752194
  C 0.542922 0.351074 -4.234743
  H 3.985459 0.019700 -1.117441
  H 0.601049 0.212322 1.490117
  H 1.541798 -0.837161 0.131579
  H 0.047923 0.432589 -0.251869
  H 2.736680 -0.737713 -3.107885
  H 2.879695 1.021249 -3.052964
  H 0.548027 1.202635 -2.266116
  H 0.388883 -0.562964 -2.301711
  H 1.025201 1.204548 -4.708683
  H -0.536649 0.447696 -4.368414
  H 0.872612 -0.554351 -4.745066
 18
 69.220692
  C 0.805704 0.146498 0.456963
  C 2.271085 0.002212 0.050677
  H 2.924486 0.008475 0.911042
  C 2.921511 0.076512 -1.147951
  C 2.407401 0.157527 -2.555080
  C 0.888357 0.287981 -2.760902
  C 0.538924 0.353651 -4.251805
  H 4.003538 0.014575 -1.106794
  H 0.601324 0.225784 1.508863
  H 1.574520 -0.843597 0.144361
  H 0.054293 0.418677 -0.243688
  H 2.753191 -0.726286 -3.094807
  H 2.890734 1.007661 -3.034481
  H 0.535771 1.190827 -2.277664
  H 0.378940 -0.566413 -2.318617
  H 1.019836 1.207216 -4.719295
  H -0.530817 0.447823 -4.390662
  H 0.871557 -0.545946 -4.762860
 18
 71.555877
  C 0.813575 0.169257 0.454131
  C 2.268546 -0.008417 0.057313
  H 2.926935 0.007130 0.918978
  C 2.922592 0.073664 -1.146212
  C 2.404688 0.156010 -2.553585
  C 0.902871 0.283651 -2.751670
  C 0.546499 0.354093 -4.250024
  H 3.998662 0.011105 -1.105564
  H 0.596310 0.232648 1.495333
  H 1.604646 -0.855052 0.144513
  H 0.055877 0.406314 -0.265801
  H 2.752877 -0.734142 -3.102704
  H 2.886975 1.010326 -3.034959
  H 0.552524 1.180171 -2.264361
  H 0.398099 -0.569907 -2.309842
  H 1.022206 1.206444 -4.716009
  H -0.524958 0.447580 -4.386557
  H 0.877833 -0.542178 -4.766627
