 31
 0.000000
  C 0.904686 0.048754 0.271691
  C 2.396097 0.059154 0.087326
  C 3.238875 -0.012278 1.353362
  C 2.524787 -0.088320 2.700888
  C 3.529318 -0.152928 3.845968
  C 2.991148 0.127374 -1.121652
  C 2.350484 0.204784 -2.493535
  C 0.839679 0.217308 -2.715408
  C 0.522440 0.301430 -4.206252
  C 4.453087 0.132313 -1.209117
  C 5.192032 0.194592 -2.312945
  H 6.270484 0.194341 -2.308442
  H 0.604898 -0.009988 1.312663
  H 0.461352 -0.816528 -0.214296
  H 0.461352 0.963214 -0.113869
  H 3.884859 0.870952 1.383233
  H 3.884861 -0.893264 1.283685
  H 1.892256 -0.977996 2.744625
  H 1.892250 0.790783 2.844433
  H 4.164304 -1.032031 3.756945
  H 3.007909 -0.206732 4.799392
  H 4.164299 0.730608 3.856400
  H 2.740401 -0.643682 -3.066720
  H 2.740401 1.112350 -2.967632
  H 0.385649 1.078154 -2.226129
  H 0.385649 -0.693119 -2.326077
  H 0.933754 1.210100 -4.641509
  H -0.554756 0.310056 -4.359122
  H 0.933751 -0.552506 -4.740963
  H 4.995413 0.079765 -0.277831
  H 4.811061 0.251435 -3.320288
 31
 10.501595
  C 0.778302 0.049721 0.254539
  C 2.396074 0.061743 0.041439
  C 3.306216 -0.016051 1.420231
  C 2.573563 -0.091268 2.753125
  C 3.563589 -0.156577 3.910644
  C 2.986851 0.129264 -1.155160
  C 2.350158 0.206715 -2.527774
  C 0.840534 0.219366 -2.751882
  C 0.529197 0.303571 -4.244178
  C 4.449040 0.133865 -1.236626
  C 5.192092 0.195838 -2.335032
  H 6.270502 0.194932 -2.318967
  H 0.496703 -0.009306 1.300560
  H 0.335751 -0.814108 -0.228849
  H 0.335751 0.962446 -0.128602
  H 3.949551 0.866010 1.451585
  H 3.949555 -0.896041 1.352160
  H 1.939596 -0.980247 2.787122
  H 1.939590 0.788238 2.886914
  H 4.199147 -1.036134 3.828941
  H 3.030602 -0.210014 4.857564
  H 4.199142 0.726589 3.928402
  H 2.742266 -0.641753 -3.099338
  H 2.742266 1.114101 -3.000259
  H 0.385768 1.079981 -2.263240
  H 0.385769 -0.690759 -2.363159
  H 0.943024 1.212054 -4.677464
  H -0.547241 0.312477 -4.401987
  H 0.943023 -0.550401 -4.776915
  H 4.985801 0.081143 -0.302269
  H 4.814434 0.252736 -3.343353
 31
 33.380396
  C 0.677168 0.049079 0.265908
  C 2.411966 0.064988 -0.016071
  C 3.386906 -0.019474 1.480879
  C 2.608534 -0.092526 2.775410
  C 3.560721 -0.159653 3.965156
  C 2.990046 0.131609 -1.196700
  C 2.351462 0.208887 -2.566252
  C 0.842262 0.220731 -2.776090
  C 0.522494 0.304859 -4.267006
  C 4.455481 0.135790 -1.270748
  C 5.206513 0.197485 -2.364221
  H 6.284362 0.195431 -2.327788
  H 0.455622 -0.010681 1.324909
  H 0.237073 -0.814320 -0.208070
  H 0.237073 0.960318 -0.107930
  H 4.022095 0.861773 1.508705
  H 4.022101 -0.898257 1.409393
  H 1.971220 -0.979593 2.784209
  H 1.971214 0.787913 2.883946
  H 4.197322 -1.040442 3.903082
  H 2.997501 -0.212085 4.894249
  H 4.197322 0.722536 4.002556
  H 2.742907 -0.639697 -3.138084
  H 2.742904 1.116411 -3.038987
  H 0.392293 1.080563 -2.281999
  H 0.392294 -0.689227 -2.381864
  H 0.934740 1.213308 -4.701983
  H -0.554484 0.313501 -4.420144
  H 0.934736 -0.548883 -4.801412
  H 4.982005 0.082729 -0.330367
  H 4.832861 0.254454 -3.373802
 31
 60.069257
  C 0.576106 0.048329 0.279191
  C 2.425872 0.067654 -0.063307
  C 3.461138 -0.023779 1.557170
  C 2.636603 -0.095015 2.819542
  C 3.549640 -0.163988 4.041980
  C 3.008879 0.135002 -1.256836
  C 2.363692 0.212086 -2.622926
  C 0.851214 0.222260 -2.803164
  C 0.503236 0.306025 -4.287638
  C 4.476699 0.138904 -1.325949
  C 5.230069 0.200352 -2.415016
  H 6.306977 0.197544 -2.365231
  H 0.405723 -0.011823 1.345154
  H 0.142789 -0.819945 -0.193119
  H 0.142789 0.964226 -0.092440
  H 4.090363 0.861918 1.578431
  H 4.090370 -0.906244 1.478659
  H 1.997092 -0.980364 2.804270
  H 1.997087 0.786425 2.903966
  H 4.186344 -1.045734 4.000164
  H 2.956015 -0.215347 4.952099
  H 4.186338 0.716865 4.099619
  H 2.750642 -0.636834 -3.197764
  H 2.750643 1.120288 -3.098616
  H 0.411501 1.081285 -2.297685
  H 0.411499 -0.688181 -2.397528
  H 0.907111 1.214730 -4.729762
  H -0.576277 0.313584 -4.421573
  H 0.907112 -0.547182 -4.829184
  H 4.994519 0.085577 -0.380862
  H 4.856780 0.257304 -3.424321
 31
 84.894908
  C 0.529418 0.047745 0.289508
  C 2.449059 0.073061 -0.159169
  C 3.550727 -0.027344 1.620234
  C 2.642225 -0.095343 2.825305
  C 3.477357 -0.167555 4.105224
  C 3.038069 0.139412 -1.334979
  C 2.388918 0.216202 -2.695815
  C 0.868586 0.221843 -2.795744
  C 0.435595 0.304510 -4.260698
  C 4.505685 0.141455 -1.371170
  C 5.273613 0.202386 -2.451038
  H 6.347975 0.197578 -2.365821
  H 0.497678 -0.012791 1.362212
  H 0.136003 -0.835317 -0.188261
  H 0.136006 0.978948 -0.085877
  H 4.165450 0.870200 1.613070
  H 4.165459 -0.918380 1.512148
  H 2.000551 -0.978766 2.771595
  H 2.000548 0.788514 2.871309
  H 4.112195 -1.051137 4.099551
  H 2.828501 -0.216742 4.977009
  H 4.112193 0.711063 4.198972
  H 2.765204 -0.632411 -3.276584
  H 2.765209 1.124760 -3.177426
  H 0.460813 1.079608 -2.262132
  H 0.460796 -0.690530 -2.362003
  H 0.813250 1.214131 -4.723794
  H -0.649654 0.308817 -4.336928
  H 0.813251 -0.547255 -4.823195
  H 4.985722 0.087145 -0.408702
  H 4.900478 0.259272 -3.459144
 31
 111.484593
  C 0.406806 0.047540 0.293107
  C 2.430509 0.075487 -0.202174
  C 3.606955 -0.032132 1.705115
  C 2.694109 -0.098592 2.882900
  C 3.514142 -0.171407 4.173470
  C 3.026294 0.141429 -1.370746
  C 2.386572 0.218817 -2.742203
  C 0.868856 0.224654 -2.845612
  C 0.436476 0.307086 -4.306444
  C 4.495209 0.142442 -1.388683
  C 5.275112 0.203012 -2.462141
  H 6.348039 0.197449 -2.363545
  H 0.405014 -0.013019 1.366240
  H 0.025011 -0.833047 -0.185502
  H 0.025013 0.976383 -0.083395
  H 4.211392 0.863196 1.684107
  H 4.211401 -0.919410 1.583523
  H 2.055236 -0.980570 2.819038
  H 2.055228 0.784971 2.918654
  H 4.148461 -1.055670 4.175072
  H 2.854552 -0.220120 5.036836
  H 4.148460 0.707072 4.274526
  H 2.766422 -0.630561 -3.320463
  H 2.766429 1.127859 -3.221240
  H 0.462740 1.081099 -2.309941
  H 0.462741 -0.686609 -2.409691
  H 0.814243 1.216645 -4.769165
  H -0.648269 0.311372 -4.382362
  H 0.814240 -0.544645 -4.868549
  H 4.961627 0.087523 -0.415407
  H 4.909113 0.260045 -3.472872
 31
 135.501729
  C 0.309023 0.048338 0.279002
  C 2.429876 0.078764 -0.260216
  C 3.675444 -0.036738 1.786766
  C 2.730280 -0.102073 2.944605
  C 3.519773 -0.176217 4.258729
  C 3.032741 0.144491 -1.424996
  C 2.394671 0.221715 -2.793530
  C 0.874450 0.226193 -2.872852
  C 0.414403 0.308252 -4.327062
  C 4.500761 0.144665 -1.428063
  C 5.286355 0.204645 -2.491078
  H 6.357893 0.198404 -2.380474
  H 0.343431 -0.012109 1.350148
  H -0.058360 -0.837946 -0.206434
  H -0.058357 0.983608 -0.103642
  H 4.276275 0.865415 1.753649
  H 4.276283 -0.929434 1.652375
  H 2.091288 -0.985101 2.864509
  H 2.091283 0.784353 2.964348
  H 4.152389 -1.061235 4.275628
  H 2.838247 -0.223974 5.105126
  H 4.152384 0.701286 4.375072
  H 2.771239 -0.627701 -3.373265
  H 2.771247 1.130958 -3.274027
  H 0.477963 1.082537 -2.326616
  H 0.477953 -0.686180 -2.426408
  H 0.782933 1.218505 -4.796756
  H -0.671982 0.311431 -4.383356
  H 0.782931 -0.543390 -4.896173
  H 4.952126 0.089476 -0.449995
  H 4.925448 0.261754 -3.503166
