 20
 0.000000
  C -2.995592 0.986035 -1.434012
  C -1.516843 0.612624 -1.446665
  C -1.064974 0.188677 -0.046115
  C -1.246797 -0.493973 -2.448949
  O -2.141736 -1.073950 -3.032921
  C 0.193779 -0.844764 -2.697097
  H -3.179594 1.809818 -0.748508
  H -3.608214 0.141205 -1.125798
  H -3.326747 1.288742 -2.425649
  H -0.945479 1.490272 -1.768448
  H -1.575161 -0.721051 0.262774
  H -1.291789 0.968133 0.675751
  H 0.004453 -0.001528 -0.002232
  H 0.855840 -0.138083 -2.211376
  H 0.381300 -0.820329 -3.766919
  H 0.382221 -1.847762 -2.324352
  O 2.978211 0.162191 -0.040220
  H 3.486498 -0.676567 -0.089107
  H 2.014761 -0.005363 0.008093
  H 3.203045 0.764094 -0.780802
 20
 0.948422
  C -2.937944 0.979776 -1.397307
  C -1.459313 0.615227 -1.452157
  C -0.977454 0.198505 -0.063396
  C -1.221786 -0.508991 -2.444338
  O -2.134177 -1.124616 -2.958925
  C 0.218959 -0.821501 -2.749972
  H -3.106200 1.808210 -0.712214
  H -3.527929 0.125551 -1.066743
  H -3.298231 1.264309 -2.383812
  H -0.899503 1.485979 -1.796708
  H -1.491432 -0.702906 0.245943
  H -1.215249 0.978602 0.647264
  H 0.099761 0.016971 -0.011249
  H 0.874298 -0.059909 -2.355733
  H 0.336420 -0.882889 -3.828926
  H 0.455454 -1.801743 -2.347396
  O 2.779620 0.148664 -0.012764
  H 3.274935 -0.695341 -0.046652
  H 1.801875 0.001654 0.018145
  H 3.036805 0.763679 -0.731111
 20
 3.939062
  C -2.889473 0.979574 -1.382761
  C -1.414972 0.613836 -1.451042
  C -0.910846 0.196353 -0.053508
  C -1.190571 -0.520070 -2.444374
  O -2.107442 -1.143348 -2.946206
  C 0.229817 -0.828204 -2.781957
  H -3.048124 1.811603 -0.700127
  H -3.484264 0.138318 -1.042222
  H -3.274303 1.262455 -2.360924
  H -0.863604 1.486347 -1.810727
  H -1.424159 -0.707867 0.261001
  H -1.142723 0.979497 0.662795
  H 0.177157 0.011865 -0.001615
  H 0.901448 -0.067703 -2.422522
  H 0.304885 -0.895307 -3.870956
  H 0.481923 -1.805941 -2.373037
  O 2.622411 0.162747 -0.011243
  H 3.129685 -0.675720 -0.040049
  H 1.627737 0.019504 0.017938
  H 2.887139 0.783009 -0.717469
 20
 7.617994
  C -2.856975 0.977445 -1.362972
  C -1.380773 0.606828 -1.445244
  C -0.879980 0.205607 -0.053179
  C -1.165511 -0.531243 -2.432843
  O -2.090996 -1.154572 -2.916872
  C 0.254348 -0.818637 -2.800272
  H -3.007144 1.815426 -0.685499
  H -3.443952 0.134242 -1.006594
  H -3.240099 1.251784 -2.343834
  H -0.826245 1.473329 -1.820247
  H -1.388698 -0.691533 0.277895
  H -1.109611 0.987380 0.659495
  H 0.226945 0.023661 -0.005823
  H 0.922583 -0.039513 -2.476704
  H 0.305948 -0.913371 -3.887917
  H 0.530589 -1.792884 -2.403137
  O 2.503366 0.157571 -0.024168
  H 3.001059 -0.679551 -0.049255
  H 1.474494 0.023872 0.006665
  H 2.781540 0.782041 -0.722837
 20
 12.548701
  C -2.828417 0.980141 -1.352598
  C -1.350055 0.607876 -1.443566
  C -0.838256 0.204545 -0.053541
  C -1.146177 -0.533415 -2.424044
  O -2.075791 -1.168300 -2.881127
  C 0.273932 -0.814360 -2.819751
  H -2.972888 1.820026 -0.678407
  H -3.414561 0.138104 -0.991584
  H -3.216091 1.251602 -2.332772
  H -0.800773 1.473343 -1.823806
  H -1.344273 -0.701382 0.273982
  H -1.067683 0.989566 0.664619
  H 0.269926 0.027868 -0.010989
  H 0.933567 -0.025690 -2.532171
  H 0.303725 -0.939539 -3.894743
  H 0.569048 -1.770115 -2.405874
  O 2.398828 0.163133 -0.031639
  H 2.896289 -0.690645 -0.074635
  H 1.340402 0.036300 -0.003742
  H 2.677966 0.791054 -0.710165
 20
 20.968778
  C -2.817613 0.982744 -1.346983
  C -1.339793 0.608257 -1.439499
  C -0.838590 0.208143 -0.058024
  C -1.144702 -0.535890 -2.429763
  O -2.078090 -1.168524 -2.879215
  C 0.273636 -0.819130 -2.833118
  H -2.963303 1.822664 -0.672675
  H -3.404649 0.137253 -0.987451
  H -3.201736 1.250268 -2.329434
  H -0.793358 1.474257 -1.823578
  H -1.335627 -0.699892 0.274552
  H -1.062101 0.990376 0.661290
  H 0.300442 0.030483 -0.013504
  H 0.939702 -0.019635 -2.551833
  H 0.298721 -0.949469 -3.909901
  H 0.573429 -1.773860 -2.414109
  O 2.393231 0.169259 -0.030554
  H 2.880643 -0.681919 -0.079112
  H 1.245317 0.041920 -0.005919
  H 2.677366 0.797875 -0.700898
 20
 31.952369
  C -2.835622 0.987160 -1.355569
  C -1.354896 0.611245 -1.446440
  C -0.861971 0.206546 -0.063586
  C -1.155770 -0.528992 -2.438416
  O -2.087621 -1.162607 -2.889114
  C 0.266286 -0.818401 -2.826756
  H -2.982469 1.823767 -0.679498
  H -3.424121 0.143452 -1.002565
  H -3.215413 1.259255 -2.337665
  H -0.804868 1.477817 -1.823826
  H -1.353804 -0.706873 0.264398
  H -1.080979 0.989094 0.660604
  H 0.346522 0.019993 -0.014844
  H 0.927525 -0.026342 -2.539929
  H 0.304385 -0.949729 -3.901233
  H 0.559414 -1.769398 -2.399370
  O 2.459399 0.172205 -0.029991
  H 2.942516 -0.675270 -0.083381
  H 1.201628 0.036558 -0.007136
  H 2.744191 0.801250 -0.700023
 20
 44.233906
  C -2.857029 0.989606 -1.359751
  C -1.372869 0.609258 -1.451651
  C -0.913775 0.211701 -0.067058
  C -1.169326 -0.533071 -2.447719
  O -2.103417 -1.154831 -2.907094
  C 0.258023 -0.819628 -2.828500
  H -2.999968 1.827595 -0.682020
  H -3.450814 0.150899 -1.012785
  H -3.229549 1.264063 -2.343564
  H -0.811002 1.472978 -1.822633
  H -1.385064 -0.709578 0.264937
  H -1.110481 0.992359 0.656691
  H 0.357232 0.012131 -0.011751
  H 0.923407 -0.025844 -2.532740
  H 0.308557 -0.948827 -3.903023
  H 0.551154 -1.770703 -2.392242
  O 2.566744 0.173022 -0.022256
  H 3.026773 -0.664333 -0.087045
  H 1.140040 0.030029 -0.003126
  H 2.855808 0.805820 -0.701236
 20
 57.592289
  C -2.888400 0.992851 -1.368940
  C -1.405382 0.612432 -1.463586
  C -0.974986 0.214612 -0.084126
  C -1.198025 -0.524222 -2.473133
  O -2.128626 -1.151071 -2.929718
  C 0.226444 -0.821379 -2.827791
  H -3.033782 1.827246 -0.685002
  H -3.483527 0.149450 -1.031557
  H -3.251462 1.276002 -2.353617
  H -0.843162 1.478343 -1.822346
  H -1.427181 -0.713969 0.246199
  H -1.158240 0.989829 0.643899
  H 0.375940 0.002922 -0.010816
  H 0.897329 -0.031750 -2.521255
  H 0.293291 -0.956499 -3.901287
  H 0.506870 -1.771937 -2.380503
  O 2.733382 0.186886 0.000891
  H 3.200101 -0.656102 -0.063454
  H 1.101641 0.024027 0.004364
  H 3.028259 0.805957 -0.667171
 20
 70.385495
  C -2.939220 0.981989 -1.377001
  C -1.448587 0.620627 -1.494032
  C -1.060444 0.231513 -0.119038
  C -1.252769 -0.520375 -2.499188
  O -2.189061 -1.151919 -2.933712
  C 0.168189 -0.817875 -2.862541
  H -3.090058 1.807158 -0.690528
  H -3.518383 0.126618 -1.037574
  H -3.305372 1.265580 -2.357958
  H -0.900971 1.501870 -1.839031
  H -1.525235 -0.691929 0.219290
  H -1.250491 1.020840 0.607106
  H 0.425651 -0.004154 0.006900
  H 0.843873 -0.029608 -2.568343
  H 0.227571 -0.963858 -3.938499
  H 0.448856 -1.769456 -2.417854
  O 2.997856 0.189507 0.087617
  H 3.471867 -0.647271 0.052409
  H 1.121666 0.007608 0.041603
  H 3.327779 0.788082 -0.588335
 20
 77.271398
  C -3.045161 0.988775 -1.400700
  C -1.545741 0.615258 -1.522411
  C -1.202427 0.246961 -0.142426
  C -1.308605 -0.516848 -2.526917
  O -2.228555 -1.154912 -2.989963
  C 0.128791 -0.797344 -2.836600
  H -3.196791 1.821096 -0.720996
  H -3.634700 0.141213 -1.069543
  H -3.385630 1.265429 -2.393806
  H -0.966174 1.480493 -1.855289
  H -1.642132 -0.686855 0.206263
  H -1.346677 1.031731 0.593973
  H 0.439248 -0.033730 0.011795
  H 0.783230 0.001877 -2.522990
  H 0.231610 -0.954191 -3.906250
  H 0.408064 -1.740382 -2.367081
  O 3.354187 0.170970 0.123217
  H 3.842480 -0.658212 0.084628
  H 1.138522 -0.036867 0.053507
  H 3.714064 0.764959 -0.542051
 20
 81.719814
  C -3.122648 0.987984 -1.412067
  C -1.628048 0.585877 -1.536475
  C -1.331803 0.260890 -0.156509
  C -1.384793 -0.525736 -2.570090
  O -2.297616 -1.156571 -3.046838
  C 0.053923 -0.791993 -2.871727
  H -3.261458 1.824922 -0.736405
  H -3.732901 0.150304 -1.082682
  H -3.439825 1.268355 -2.414760
  H -1.041601 1.448952 -1.874802
  H -1.743379 -0.672186 0.219374
  H -1.439026 1.063360 0.565921
  H 0.479983 -0.051917 0.049218
  H 0.709552 0.006430 -2.546450
  H 0.164383 -0.944775 -3.939607
  H 0.332783 -1.732905 -2.403967
  O 3.715098 0.180806 0.213993
  H 4.212807 -0.643722 0.197620
  H 1.180579 -0.066306 0.103738
  H 4.097639 0.757997 -0.454356
 20
 83.839591
  C -3.194748 0.972200 -1.400986
  C -1.689081 0.579621 -1.574862
  C -1.449759 0.287966 -0.193950
  C -1.471848 -0.526487 -2.613672
  O -2.398135 -1.126249 -3.102773
  C -0.040990 -0.801027 -2.924759
  H -3.333964 1.824851 -0.738007
  H -3.798661 0.128989 -1.057863
  H -3.518950 1.238369 -2.408293
  H -1.150843 1.465254 -1.931830
  H -1.840672 -0.646137 0.198110
  H -1.526183 1.098903 0.528908
  H 0.543946 -0.063205 0.091053
  H 0.625330 -0.020458 -2.586424
  H 0.065808 -0.944211 -3.994771
  H 0.227593 -1.755101 -2.470553
  O 4.105888 0.197509 0.348131
  H 4.608739 -0.621959 0.362347
  H 1.250443 -0.087267 0.166126
  H 4.515225 0.753141 -0.323155
 20
 85.345604
  C -3.249165 0.963302 -1.376851
  C -1.741309 0.565441 -1.609178
  C -1.557665 0.303947 -0.224986
  C -1.542599 -0.531323 -2.654367
  O -2.475990 -1.101504 -3.162773
  C -0.111169 -0.818371 -2.956581
  H -3.374741 1.823958 -0.725306
  H -3.858409 0.129858 -1.025578
  H -3.581445 1.224180 -2.382519
  H -1.228418 1.459867 -1.977211
  H -1.937281 -0.628967 0.186553
  H -1.607298 1.120434 0.485857
  H 0.610696 -0.085486 0.132766
  H 0.557296 -0.052121 -2.598802
  H 0.005273 -0.939479 -4.030008
  H 0.146216 -1.778766 -2.516961
  O 4.420649 0.219137 0.456442
  H 4.934234 -0.598150 0.484732
  H 1.305125 -0.107610 0.218357
  H 4.848295 0.751236 -0.224171
