 20
 0.000000
  C -0.591833 2.425913 -0.344201
  C -0.149322 1.127087 -1.014463
  C 1.155628 1.336393 -1.791396
  C -0.000944 0.012429 0.005707
  O -0.093254 0.209997 1.202182
  C 0.261992 -1.363478 -0.547576
  H -0.749426 3.203178 -1.087380
  H 0.154072 2.769121 0.368442
  H -1.522774 2.277864 0.199319
  H -0.930149 0.807706 -1.713480
  H 1.954968 1.609852 -1.110781
  H 1.021759 2.147012 -2.501901
  H 1.426471 0.445651 -2.349693
  H 0.187118 -1.388950 -1.629292
  H -0.475237 -2.043248 -0.125830
  H 1.237204 -1.726426 -0.234809
  O 3.711350 0.157740 -0.034127
  H 2.739479 0.020589 0.006438
  H 3.959691 1.106957 -0.026286
  H 4.120443 -0.318307 -0.790907
 20
 1.580321
  C -0.605075 2.429783 -0.351254
  C -0.115897 1.146190 -1.018216
  C 1.169162 1.391752 -1.798550
  C 0.101496 0.043107 0.008651
  O 0.015171 0.243991 1.207191
  C 0.407048 -1.336260 -0.540180
  H -0.803648 3.194417 -1.097821
  H 0.133930 2.808913 0.350859
  H -1.522717 2.246051 0.204285
  H -0.892753 0.787417 -1.702732
  H 1.934700 1.693484 -1.102424
  H 1.023997 2.186779 -2.524288
  H 1.467629 0.499298 -2.340585
  H 0.336047 -1.370761 -1.621731
  H -0.319156 -2.026431 -0.114203
  H 1.382614 -1.686489 -0.213151
  O 3.503520 0.047610 -0.042056
  H 2.517125 0.063271 0.059857
  H 3.896934 0.944569 -0.071590
  H 3.783019 -0.495384 -0.809945
 20
 2.434775
  C -0.567360 2.407601 -0.335410
  C -0.070311 1.134058 -1.022094
  C 1.161594 1.442824 -1.891800
  C 0.254487 0.059072 -0.001157
  O 0.280144 0.292873 1.194690
  C 0.471268 -1.346495 -0.553872
  H -0.844691 3.154405 -1.073972
  H 0.199000 2.824787 0.311406
  H -1.437698 2.196350 0.280754
  H -0.875287 0.729954 -1.648245
  H 1.930756 1.838468 -1.243515
  H 0.908749 2.208013 -2.623644
  H 1.501171 0.564291 -2.435797
  H 0.336168 -1.391780 -1.629070
  H -0.275802 -1.985917 -0.081850
  H 1.427495 -1.776973 -0.262353
  O 3.269146 -0.019034 0.043839
  H 2.305232 0.150068 -0.043458
  H 3.778052 0.797319 0.242666
  H 3.635204 -0.479129 -0.741144
 20
 5.523299
  C -0.534572 2.378991 -0.327197
  C -0.022568 1.130269 -1.024811
  C 1.155955 1.470071 -1.932862
  C 0.374536 0.063397 -0.011194
  O 0.465002 0.304092 1.180627
  C 0.504132 -1.348670 -0.556340
  H -0.860653 3.113967 -1.058514
  H 0.237621 2.823905 0.292151
  H -1.375333 2.140090 0.315605
  H -0.828903 0.703384 -1.618829
  H 1.934811 1.928626 -1.332670
  H 0.846805 2.197051 -2.673500
  H 1.515688 0.597366 -2.459983
  H 0.355061 -1.387203 -1.633956
  H -0.283729 -1.937297 -0.073512
  H 1.437057 -1.837362 -0.267257
  O 3.106342 -0.035389 0.078541
  H 2.137557 0.197198 -0.060196
  H 3.643488 0.732288 0.371691
  H 3.497725 -0.444948 -0.716954
 20
 11.867939
  C -0.499557 2.371697 -0.311640
  C 0.022921 1.122581 -1.023896
  C 1.158068 1.481570 -1.959781
  C 0.455305 0.056722 -0.010739
  O 0.543208 0.300381 1.183845
  C 0.526585 -1.364591 -0.549440
  H -0.853552 3.098106 -1.034955
  H 0.277683 2.833332 0.289504
  H -1.324891 2.119246 0.352181
  H -0.793726 0.674614 -1.607533
  H 1.939991 1.976270 -1.397491
  H 0.804586 2.186931 -2.709904
  H 1.532286 0.607206 -2.482805
  H 0.396139 -1.398418 -1.629129
  H -0.295748 -1.907091 -0.081500
  H 1.425134 -1.889476 -0.243251
  O 2.980126 -0.030827 0.077825
  H 1.988798 0.181288 -0.060252
  H 3.490280 0.726325 0.438347
  H 3.400643 -0.365961 -0.739875
 20
 19.009435
  C -0.462538 2.352283 -0.296194
  C 0.062510 1.112838 -1.012400
  C 1.177865 1.483892 -1.976221
  C 0.494640 0.048728 0.001038
  O 0.528576 0.285206 1.204561
  C 0.523724 -1.380632 -0.535573
  H -0.833206 3.078215 -1.021699
  H 0.318211 2.824680 0.297610
  H -1.282249 2.089632 0.379057
  H -0.756640 0.657483 -1.584828
  H 1.964623 2.005381 -1.443759
  H 0.792823 2.167695 -2.728159
  H 1.557023 0.614168 -2.496202
  H 0.447771 -1.408831 -1.618929
  H -0.347874 -1.882191 -0.108210
  H 1.381419 -1.937507 -0.184637
  O 2.905642 0.001966 0.044005
  H 1.853926 0.132063 -0.035733
  H 3.363158 0.772121 0.435676
  H 3.320550 -0.243193 -0.810645
 20
 27.315960
  C -0.444455 2.361214 -0.277583
  C 0.076638 1.115390 -1.004901
  C 1.176001 1.487388 -1.986354
  C 0.507130 0.039955 0.005838
  O 0.488796 0.262561 1.219895
  C 0.524595 -1.395517 -0.537974
  H -0.820060 3.083279 -0.993902
  H 0.337407 2.832993 0.305334
  H -1.245907 2.101974 0.397517
  H -0.739609 0.663284 -1.563494
  H 1.981680 2.003526 -1.475070
  H 0.780674 2.169217 -2.733304
  H 1.544226 0.610366 -2.512923
  H 0.490544 -1.413799 -1.620355
  H -0.373949 -1.877228 -0.143683
  H 1.378430 -1.974901 -0.151095
  O 2.869118 0.009946 0.024433
  H 1.739967 0.086680 -0.015692
  H 3.284437 0.767017 0.443043
  H 3.274281 -0.160116 -0.864801
 20
 35.132464
  C -0.434806 2.344666 -0.285385
  C 0.103132 1.105177 -0.988474
  C 1.200839 1.489751 -1.962265
  C 0.498371 0.038765 0.034107
  O 0.398874 0.259554 1.247040
  C 0.506821 -1.416365 -0.516593
  H -0.802812 3.058793 -1.017152
  H 0.338367 2.828868 0.308565
  H -1.251572 2.083256 0.382104
  H -0.698159 0.636496 -1.558512
  H 1.992276 2.021206 -1.449211
  H 0.791131 2.164739 -2.707820
  H 1.586554 0.622381 -2.490782
  H 0.539810 -1.431323 -1.589781
  H -0.419822 -1.868172 -0.181368
  H 1.308470 -2.010272 -0.089635
  O 2.869499 0.033356 -0.062297
  H 1.655804 0.060227 0.072654
  H 3.324180 0.800755 0.363405
  H 3.140826 -0.042800 -0.989878
 20
 42.394917
  C -0.442772 2.356699 -0.271046
  C 0.078996 1.114305 -0.982812
  C 1.177816 1.491554 -1.978215
  C 0.486740 0.035572 0.035277
  O 0.383145 0.238862 1.260932
  C 0.502251 -1.430874 -0.532805
  H -0.815321 3.075701 -0.994357
  H 0.336579 2.836077 0.313904
  H -1.253822 2.099958 0.406966
  H -0.736686 0.644146 -1.546117
  H 1.969308 2.028121 -1.468703
  H 0.771552 2.159679 -2.733672
  H 1.559307 0.618355 -2.498266
  H 0.570497 -1.431978 -1.613835
  H -0.439318 -1.880854 -0.223849
  H 1.296131 -2.024966 -0.087754
  O 2.903642 0.034530 -0.050367
  H 1.586582 0.059540 0.063910
  H 3.335029 0.780176 0.399728
  H 3.200459 -0.014252 -0.976327
 20
 48.761149
  C -0.435015 2.372826 -0.262997
  C 0.063237 1.124178 -0.988561
  C 1.137310 1.478501 -2.017742
  C 0.482056 0.040923 0.014248
  O 0.361033 0.237453 1.244614
  C 0.491684 -1.444381 -0.544049
  H -0.822497 3.093142 -0.981163
  H 0.365209 2.848217 0.298857
  H -1.227726 2.120726 0.439152
  H -0.777025 0.662006 -1.527498
  H 1.944707 2.012538 -1.536569
  H 0.707549 2.143537 -2.763291
  H 1.504662 0.599044 -2.536594
  H 0.585492 -1.452827 -1.631588
  H -0.472695 -1.872152 -0.244716
  H 1.271376 -2.052356 -0.073308
  O 2.947487 0.033273 -0.005995
  H 1.539295 0.046530 0.028600
  H 3.334687 0.749699 0.516962
  H 3.284930 0.068447 -0.908690
 20
 54.226705
  C -0.457355 2.393961 -0.267136
  C 0.039764 1.134077 -0.991049
  C 1.109158 1.472530 -2.021801
  C 0.453681 0.042556 0.018216
  O 0.296776 0.228133 1.249041
  C 0.494778 -1.436356 -0.538695
  H -0.845260 3.114558 -0.988180
  H 0.347156 2.873074 0.292680
  H -1.248369 2.146381 0.438699
  H -0.803170 0.671897 -1.525529
  H 1.928799 2.004533 -1.548265
  H 0.683003 2.132915 -2.773342
  H 1.475012 0.583685 -2.532876
  H 0.626958 -1.438272 -1.610072
  H -0.474340 -1.861917 -0.270738
  H 1.259363 -2.037694 -0.044191
  O 2.994712 -0.000019 -0.014949
  H 1.484204 0.038362 0.032160
  H 3.397759 0.671667 0.548403
  H 3.325842 0.096379 -0.925104
 20
 59.144511
  C -0.467218 2.396144 -0.277050
  C 0.013642 1.152857 -0.979079
  C 1.082790 1.476956 -2.027367
  C 0.415984 0.064941 0.031012
  O 0.229818 0.237352 1.255460
  C 0.483851 -1.439264 -0.538189
  H -0.850014 3.105957 -0.997088
  H 0.337374 2.870120 0.269760
  H -1.253272 2.156560 0.433647
  H -0.831720 0.691188 -1.503947
  H 1.901184 2.006440 -1.564353
  H 0.658607 2.131543 -2.781348
  H 1.441507 0.589005 -2.527490
  H 0.643854 -1.435863 -1.614131
  H -0.484288 -1.864755 -0.290571
  H 1.235559 -2.034963 -0.032992
  O 3.058887 -0.015560 -0.015370
  H 1.431158 0.037669 0.029177
  H 3.470712 0.612494 0.574902
  H 3.392130 0.125940 -0.905731
 20
 62.357800
  C -0.460348 2.402284 -0.267098
  C 0.007211 1.141371 -0.974166
  C 1.117367 1.430887 -1.984928
  C 0.337764 0.039394 0.033302
  O 0.072913 0.196228 1.245447
  C 0.432631 -1.450700 -0.535097
  H -0.797693 3.136671 -0.991848
  H 0.346459 2.843452 0.313203
  H -1.276480 2.181998 0.417972
  H -0.838829 0.711705 -1.532211
  H 1.943656 1.921739 -1.483217
  H 0.740481 2.110122 -2.744733
  H 1.462800 0.534381 -2.488476
  H 0.667021 -1.439231 -1.592709
  H -0.565543 -1.841736 -0.347302
  H 1.136824 -2.074323 0.013104
  O 3.144024 0.102016 -0.094238
  H 1.348575 -0.127144 0.070496
  H 3.520787 0.769027 0.491656
  H 3.417082 0.298896 -1.004906
 20
 65.136590
  C -0.549118 2.445097 -0.289396
  C -0.063460 1.183745 -0.968562
  C 1.055061 1.456491 -1.974551
  C 0.281446 0.117422 0.051439
  O -0.013394 0.255868 1.241604
  C 0.523411 -1.412792 -0.514599
  H -0.886013 3.164278 -1.024960
  H 0.250922 2.899721 0.291976
  H -1.371789 2.224561 0.392756
  H -0.904081 0.747664 -1.534596
  H 1.896826 1.929446 -1.497603
  H 0.685501 2.125032 -2.748447
  H 1.388581 0.546250 -2.458312
  H 0.785943 -1.385713 -1.563315
  H -0.455955 -1.839058 -0.344933
  H 1.235746 -2.000698 0.048222
  O 3.255735 -0.064746 -0.096589
  H 1.273189 -0.116201 0.072792
  H 3.716221 0.527653 0.501357
  H 3.590720 0.100295 -0.992933
