 17
 0.000000
  C 1.007849 -0.071122 0.048436
  C 2.503790 -0.082479 0.026143
  C 3.220123 -0.594500 -0.979043
  C 4.656567 -0.606247 -1.002102
  C 5.378016 -1.121376 -2.013385
  C 6.815253 -1.131957 -2.034154
  C 7.531026 -1.641564 -3.034605
  H 8.603893 -1.654055 -3.059123
  H 0.643901 0.394392 0.962312
  H 0.612957 -1.085544 0.007195
  H 0.612959 0.491958 -0.796370
  H 3.004767 0.352515 0.880110
  H 2.709807 -1.027873 -1.829816
  H 5.161204 -0.171581 -0.148783
  H 4.874083 -1.556106 -2.866833
  H 7.321133 -0.697449 -1.181143
  H 7.035395 -2.077418 -3.890246
 17
 15.028826
  C 0.911911 -0.050786 0.088357
  C 2.408544 -0.065852 0.058783
  C 3.116520 -0.578624 -0.947875
  C 4.713037 -0.589500 -0.969224
  C 5.477635 -1.146109 -2.061940
  C 6.908603 -1.157490 -2.084281
  C 7.622198 -1.668180 -3.086857
  H 8.696661 -1.678018 -3.106164
  H 0.551047 0.414921 1.002607
  H 0.515129 -1.064406 0.045445
  H 0.515132 0.510466 -0.756777
  H 2.915524 0.368028 0.910562
  H 2.616268 -1.012885 -1.800394
  H 5.216469 -0.157722 -0.121576
  H 4.962721 -1.576908 -2.907670
  H 7.415494 -0.722966 -1.231234
  H 7.130230 -2.104240 -3.942905
 17
 44.367124
  C 0.835805 -0.032243 0.124753
  C 2.334191 -0.068194 0.054175
  C 2.990415 -0.582212 -0.954908
  C 4.820942 -0.569292 -0.929524
  C 5.546961 -1.150199 -2.069975
  C 6.972557 -1.171557 -2.111908
  C 7.677292 -1.692452 -3.134523
  H 8.762485 -1.697002 -3.143418
  H 0.502164 0.437811 1.047506
  H 0.427652 -1.038210 0.081128
  H 0.427657 0.523901 -0.714607
  H 2.863826 0.356761 0.888411
  H 2.585087 -1.031269 -1.836472
  H 5.278995 -0.132677 -0.072369
  H 4.986177 -1.562135 -2.878693
  H 7.486438 -0.741595 -1.267799
  H 7.188373 -2.128539 -3.990627
 17
 76.421117
  C 0.728442 -0.012206 0.164101
  C 2.232049 -0.071222 0.048250
  C 2.843472 -0.591120 -0.972381
  C 4.989935 -0.572360 -0.935563
  C 5.649029 -1.141037 -2.051993
  C 7.073641 -1.182658 -2.133691
  C 7.731950 -1.707877 -3.164773
  H 8.800125 -1.727280 -3.202889
  H 0.438697 0.463052 1.097068
  H 0.301516 -1.015769 0.134341
  H 0.301533 0.553772 -0.665190
  H 2.793485 0.349619 0.874417
  H 2.488600 -1.049214 -1.871686
  H 5.415985 -0.127714 -0.062644
  H 5.048758 -1.550018 -2.854892
  H 7.625235 -0.757824 -1.299668
  H 7.215062 -2.136537 -4.006336
 17
 102.257952
  C 0.601069 0.014421 0.216371
  C 2.106095 -0.069715 0.051221
  C 2.687978 -0.595522 -0.981023
  C 5.145949 -0.576984 -0.944675
  C 5.755211 -1.131192 -2.032699
  C 7.199068 -1.198917 -2.165608
  C 7.813286 -1.732121 -3.212317
  H 8.883327 -1.767256 -3.281406
  H 0.348645 0.494626 1.159089
  H 0.160199 -0.984100 0.200280
  H 0.160177 0.588509 -0.600825
  H 2.691505 0.346258 0.867855
  H 2.383181 -1.060234 -1.893315
  H 5.529417 -0.131596 -0.070285
  H 5.145917 -1.538691 -2.832664
  H 7.776989 -0.780922 -1.344993
  H 7.267703 -2.148020 -4.028855
 17
 120.178612
  C 0.474270 0.038070 0.262776
  C 1.976216 -0.064999 0.060478
  C 2.542409 -0.593973 -0.977993
  C 5.293846 -0.581568 -0.953725
  C 5.879163 -1.124486 -2.019576
  C 7.313915 -1.212870 -2.192986
  C 7.888998 -1.758549 -3.264146
  H 8.959027 -1.813141 -3.371523
  H 0.248758 0.526036 1.220729
  H 0.026038 -0.951400 0.255755
  H 0.026084 0.614146 -0.541689
  H 2.572123 0.343563 0.862590
  H 2.265118 -1.069624 -1.911759
  H 5.650139 -0.109334 -0.026614
  H 5.288345 -1.527883 -2.811446
  H 7.908152 -0.811662 -1.405334
  H 7.308834 -2.166395 -4.064889
 17
 131.656842
  C 0.355347 0.066610 0.318869
  C 1.846727 -0.054333 0.081474
  C 2.389318 -0.586470 -0.963172
  C 5.418455 -0.589462 -0.969110
  C 5.990512 -1.126604 -2.023647
  C 7.435661 -1.228371 -2.223446
  C 7.983055 -1.776490 -3.299549
  H 9.060893 -1.841870 -3.427788
  H 0.166631 0.546611 1.261166
  H -0.105508 -0.922809 0.324636
  H -0.105622 0.653120 -0.478293
  H 2.467094 0.354160 0.883394
  H 2.123432 -1.065057 -1.902683
  H 5.727935 -0.132082 -0.071203
  H 5.385434 -1.539710 -2.834678
  H 8.051662 -0.828936 -1.439323
  H 7.381370 -2.182725 -4.097048
 17
 138.240258
  C 0.225814 0.093620 0.371859
  C 1.715622 -0.042647 0.104342
  C 2.244666 -0.576484 -0.943632
  C 5.530802 -0.606326 -1.002204
  C 6.107600 -1.143784 -2.057369
  C 7.550102 -1.248199 -2.262331
  C 8.091586 -1.798713 -3.343130
  H 9.158308 -1.864960 -3.473257
  H 0.055302 0.581120 1.328839
  H -0.241457 -0.887420 0.385000
  H -0.241516 0.681059 -0.414059
  H 2.350770 0.359840 0.894457
  H 1.976258 -1.041892 -1.857284
  H 5.825913 -0.142088 -0.090804
  H 5.505921 -1.554199 -2.863093
  H 8.166005 -0.849685 -1.480031
  H 7.486113 -2.203851 -4.138487
 17
 142.200197
  C 0.081023 0.129021 0.441336
  C 1.579353 -0.024713 0.139549
  C 2.091883 -0.561901 -0.914981
  C 5.653453 -0.629723 -1.048107
  C 6.229053 -1.158581 -2.086368
  C 7.677115 -1.269386 -2.303908
  C 8.208760 -1.820250 -3.385416
  H 9.274189 -1.890015 -3.522437
  H -0.064693 0.612265 1.389949
  H -0.399349 -0.851424 0.463981
  H -0.399409 0.723782 -0.338526
  H 2.226546 0.368416 0.911281
  H 1.813719 -1.027565 -1.829123
  H 5.922251 -0.162218 -0.130319
  H 5.631587 -1.570968 -2.895978
  H 8.301565 -0.871258 -1.522400
  H 7.597872 -2.222470 -4.175157
 17
 143.700499
  C -0.050504 0.160617 0.503338
  C 1.438875 -0.002022 0.184057
  C 1.936318 -0.541830 -0.875630
  C 5.748713 -0.659291 -1.106143
  C 6.338186 -1.186979 -2.142103
  C 7.787986 -1.289333 -2.343030
  C 8.333032 -1.837861 -3.419918
  H 9.397686 -1.901337 -3.544839
  H -0.182302 0.648323 1.460703
  H -0.531608 -0.808598 0.531424
  H -0.531628 0.753137 -0.264171
  H 2.098697 0.387101 0.947937
  H 1.635361 -1.005353 -1.785580
  H 6.011849 -0.191561 -0.187897
  H 5.749089 -1.599910 -2.952760
  H 8.404488 -0.885149 -1.549635
  H 7.732648 -2.243571 -4.216560
 17
 144.287325
  C -0.182254 0.197839 0.576353
  C 1.288268 0.027306 0.241598
  C 1.769263 -0.516107 -0.825155
  C 5.831211 -0.701812 -1.189607
  C 6.448251 -1.222509 -2.211759
  C 7.903664 -1.310104 -2.383574
  C 8.474890 -1.852765 -3.449027
  H 9.546030 -1.905120 -3.553327
  H -0.297664 0.690777 1.543975
  H -0.671670 -0.776807 0.610598
  H -0.671637 0.798529 -0.191886
  H 1.962349 0.414066 1.000881
  H 1.445304 -0.976334 -1.728615
  H 6.068025 -0.230985 -0.265223
  H 5.881759 -1.641459 -3.034046
  H 8.501664 -0.898520 -1.575865
  H 7.892714 -2.266048 -4.260311
 17
 144.702040
  C -0.329314 0.243664 0.662417
  C 1.140886 0.061221 0.306629
  C 1.603663 -0.486673 -0.764506
  C 5.911131 -0.757386 -1.290883
  C 6.559381 -1.269361 -2.291443
  C 8.018367 -1.337514 -2.422142
  C 8.628255 -1.869727 -3.472735
  H 9.703326 -1.888410 -3.552178
  H -0.428402 0.736729 1.626548
  H -0.823339 -0.724646 0.705189
  H -0.822889 0.845554 -0.097835
  H 1.823895 0.442311 1.052391
  H 1.266640 -0.946209 -1.663385
  H 6.114530 -0.281610 -0.359997
  H 6.017903 -1.699908 -3.132026
  H 8.581672 -0.912732 -1.603709
  H 8.076737 -2.277778 -4.304157
 17
 144.425105
  C -0.328726 0.242275 0.663292
  C 1.142276 0.060786 0.307187
  C 1.604997 -0.485696 -0.765234
  C 5.903877 -0.755920 -1.295224
  C 6.556977 -1.266197 -2.296592
  C 8.016978 -1.331459 -2.424518
  C 8.629158 -1.864935 -3.472421
  H 9.703429 -1.899620 -3.544208
  H -0.427181 0.732891 1.626049
  H -0.823199 -0.725945 0.704947
  H -0.823162 0.844995 -0.095575
  H 1.828547 0.442411 1.056145
  H 1.266152 -0.943538 -1.663743
  H 6.112177 -0.281480 -0.364032
  H 6.019843 -1.694190 -3.136448
  H 8.580903 -0.912013 -1.602363
  H 8.079397 -2.284842 -4.299085
