 26
 0.000000
  C 0.975790 0.137332 0.393142
  C 2.453972 0.138831 0.396445
  C 3.235887 0.609601 1.567949
  H 2.688339 0.952271 2.420984
  C 3.074760 -0.323868 -0.755623
  C 4.452396 -0.411652 -0.974602
  C 5.123831 -0.863395 -2.100714
  C 4.621920 -1.386396 -3.404454
  C 3.129954 -1.502980 -3.695876
  C 2.901042 -2.064737 -5.096300
  O 6.448567 -0.861790 -2.097024
  H 0.536390 0.506813 1.312870
  H 0.606624 -0.875729 0.225913
  H 0.606339 0.752985 -0.428456
  H 3.892013 1.422462 1.236076
  H 3.892206 -0.206765 1.890660
  H 2.419633 -0.642347 -1.548686
  H 5.073532 -0.080521 -0.149771
  H 5.075895 -2.376004 -3.531813
  H 5.076265 -0.759449 -4.180462
  H 2.655656 -0.522022 -3.641480
  H 2.655252 -2.174151 -2.978669
  H 3.338077 -1.417822 -5.854009
  H 1.834884 -2.144599 -5.296051
  H 3.337677 -3.056130 -5.196764
  H 6.820588 -0.526463 -1.260938
 26
 0.000000
  C 1.009291 0.137477 0.393508
  C 2.487429 0.142143 0.404691
  C 3.262078 0.614576 1.580345
  H 2.709258 0.956064 2.430449
  C 3.130355 -0.330251 -0.771531
  C 4.440637 -0.423943 -1.005249
  C 5.076695 -0.858508 -2.088545
  C 4.599411 -1.384698 -3.400230
  C 3.113155 -1.510978 -3.715807
  C 2.910649 -2.074141 -5.119733
  O 6.340192 -0.837451 -2.036366
  H 0.564205 0.506007 1.310881
  H 0.643193 -0.876371 0.224316
  H 0.642907 0.752345 -0.430048
  H 3.918221 1.428844 1.251973
  H 3.918415 -0.200386 1.906551
  H 2.480148 -0.650126 -1.568074
  H 5.073590 -0.095927 -0.188191
  H 5.061827 -2.371322 -3.520158
  H 5.062192 -0.754765 -4.168800
  H 2.631659 -0.533132 -3.669162
  H 2.631261 -2.185264 -3.006358
  H 3.355696 -1.424354 -5.870289
  H 1.848411 -2.160933 -5.336747
  H 3.355303 -3.062665 -5.213051
  H 6.661311 -0.478765 -1.142028
 26
 0.000000
  C 1.041793 0.137669 0.393987
  C 2.519820 0.145941 0.414145
  C 3.286161 0.620248 1.594482
  H 2.727357 0.960376 2.441212
  C 3.187692 -0.336920 -0.788159
  C 4.432739 -0.436053 -1.035441
  C 5.033933 -0.854529 -2.078639
  C 4.579403 -1.383507 -3.397270
  C 3.098793 -1.518664 -3.734954
  C 2.920602 -2.082966 -5.141720
  O 6.235299 -0.816560 -1.984300
  H 0.590245 0.505101 1.308639
  H 0.679203 -0.877067 0.222576
  H 0.678917 0.751651 -0.431782
  H 3.942298 1.436118 1.270098
  H 3.942492 -0.193113 1.924670
  H 2.543117 -0.658374 -1.588634
  H 5.078268 -0.111451 -0.226900
  H 5.049450 -2.367342 -3.510252
  H 5.049809 -0.750782 -4.158888
  H 2.610813 -0.543717 -3.695531
  H 2.610424 -2.195852 -3.032734
  H 3.372889 -1.430494 -5.885591
  H 1.862252 -2.176102 -5.374535
  H 3.372505 -3.068808 -5.228360
  H 6.498645 -0.433799 -1.029926
 26
 0.000000
  C 1.072901 0.137955 0.394699
  C 2.550723 0.150381 0.425199
  C 3.307450 0.626822 1.610868
  H 2.741780 0.965366 2.453667
  C 3.247043 -0.343860 -0.805461
  C 4.429402 -0.447869 -1.064902
  C 4.996434 -0.851582 -2.071303
  C 4.562237 -1.382924 -3.395824
  C 3.086970 -1.525946 -3.753094
  C 2.930441 -2.091138 -5.162080
  O 6.135016 -0.799340 -1.941387
  H 0.613932 0.504103 1.306168
  H 0.714373 -0.877793 0.220759
  H 0.714087 0.750928 -0.433592
  H 3.963545 1.444539 1.291081
  H 3.963738 -0.184696 1.945644
  H 2.608990 -0.667113 -1.610426
  H 5.088209 -0.126985 -0.265636
  H 5.038970 -2.364241 -3.502534
  H 5.039321 -0.747678 -4.151165
  H 2.593328 -0.553611 -3.720173
  H 2.592949 -2.205748 -3.057382
  H 3.389067 -1.436243 -5.899915
  H 1.875778 -2.189897 -5.408895
  H 3.388692 -3.074559 -5.242690
  H 6.332834 -0.392096 -0.925957
 26
 0.000000
  C 1.101924 0.138570 0.396224
  C 2.579403 0.155808 0.438708
  C 3.324936 0.634687 1.630474
  H 2.751349 0.971370 2.468657
  C 3.308703 -0.351030 -0.823343
  C 4.431435 -0.459301 -1.093404
  C 4.965305 -0.849932 -2.067200
  C 4.548381 -1.383191 -3.396494
  C 3.077870 -1.532845 -3.770276
  C 2.939693 -2.098700 -5.180916
  O 6.040699 -0.786159 -1.908539
  H 0.634388 0.503203 1.303940
  H 0.748127 -0.878338 0.219388
  H 0.747845 0.750387 -0.434953
  H 3.980937 1.454543 1.316012
  H 3.981128 -0.174696 1.970566
  H 2.678255 -0.676346 -1.633454
  H 5.104168 -0.142447 -0.304190
  H 5.030694 -2.362348 -3.497829
  H 5.031037 -0.745783 -4.146455
  H 2.579516 -0.562744 -3.742916
  H 2.579146 -2.214883 -3.080130
  H 3.403608 -1.441728 -5.913580
  H 1.888317 -2.202201 -5.439537
  H 3.403243 -3.080046 -5.256359
  H 6.164464 -0.354215 -0.831511
 26
 0.000000
  C 1.127460 0.140047 0.399896
  C 2.604405 0.162832 0.456197
  C 3.336956 0.644479 1.654882
  H 2.754293 0.978985 2.487661
  C 3.372599 -0.358357 -0.841617
  C 4.439800 -0.470184 -1.120537
  C 4.942298 -0.850112 -2.067656
  C 4.538644 -1.384785 -3.400472
  C 3.071921 -1.539506 -3.786864
  C 2.947812 -2.105814 -5.198630
  O 5.954953 -0.777755 -1.887593
  H 0.650088 0.502899 1.303197
  H 0.779154 -0.878178 0.219767
  H 0.778875 0.750551 -0.434564
  H 3.992787 1.466800 1.346562
  H 3.992974 -0.162444 2.001105
  H 2.750980 -0.686021 -1.657587
  H 5.126895 -0.157629 -0.342049
  H 5.025184 -2.362272 -3.497649
  H 5.025520 -0.745706 -4.146271
  H 2.570007 -0.571130 -3.763797
  H 2.569645 -2.223270 -3.101014
  H 3.415732 -1.447234 -5.927293
  H 1.899059 -2.212936 -5.466266
  H 3.415375 -3.085553 -5.270076
  H 5.996230 -0.321089 -0.748911
 26
 0.000000
  C 1.148145 0.143234 0.407823
  C 2.624276 0.172499 0.480270
  C 3.341557 0.657318 1.686888
  H 2.748359 0.989237 2.513243
  C 3.440202 -0.365952 -0.860559
  C 4.455563 -0.480531 -1.146335
  C 4.928904 -0.852867 -2.074530
  C 4.533711 -1.388419 -3.409529
  C 3.069464 -1.546357 -3.803925
  C 2.954312 -2.112928 -5.216345
  O 5.879096 -0.774905 -1.880486
  H 0.659336 0.503958 1.305847
  H 0.806301 -0.876505 0.223911
  H 0.806028 0.752229 -0.430409
  H 3.997107 1.482520 1.385745
  H 3.997288 -0.146728 2.040276
  H 2.828985 -0.696317 -1.683273
  H 5.157414 -0.172555 -0.379265
  H 5.022921 -2.364833 -3.504040
  H 5.023249 -0.748267 -4.152661
  H 2.565306 -0.579086 -3.783606
  H 2.564952 -2.231227 -3.120825
  H 3.424758 -1.453318 -5.942446
  H 1.907274 -2.222352 -5.489705
  H 3.424409 -3.091638 -5.285231
  H 5.828175 -0.293122 -0.679168
 26
 0.000000
  C 1.161791 0.149133 0.422503
  C 2.636733 0.185842 0.513498
  C 3.336338 0.674225 1.729030
  H 2.731132 1.003113 2.547859
  C 3.511698 -0.373750 -0.880007
  C 4.479411 -0.490068 -1.170110
  C 4.927074 -0.859069 -2.089991
  C 4.534428 -1.394882 -3.425637
  C 3.070934 -1.553792 -3.822437
  C 2.958476 -2.120439 -5.235044
  O 5.816845 -0.778601 -1.889693
  H 0.659917 0.507351 1.314308
  H 0.827433 -0.872310 0.234330
  H 0.827167 0.756428 -0.419977
  H 3.991452 1.502735 1.436132
  H 3.991625 -0.126519 2.090649
  H 2.912542 -0.707164 -1.710333
  H 5.195948 -0.186816 -0.414820
  H 5.024439 -2.370973 -3.519344
  H 5.024761 -0.754406 -4.167966
  H 2.566102 -0.586855 -3.802946
  H 2.565755 -2.238996 -3.140165
  H 3.429676 -1.460517 -5.960373
  H 1.911960 -2.230557 -5.510123
  H 3.429335 -3.098837 -5.303157
  H 5.665273 -0.271447 -0.625102
 26
 0.000000
  C 1.166318 0.158796 0.446559
  C 2.639596 0.203881 0.558428
  C 3.319136 0.696171 1.783733
  H 2.700536 1.021576 2.593904
  C 3.587586 -0.381709 -0.899854
  C 4.511668 -0.498550 -1.191250
  C 4.938160 -0.869585 -2.116202
  C 4.541311 -1.404972 -3.450779
  C 3.076572 -1.562294 -3.843608
  C 2.959669 -2.128819 -5.255906
  O 5.771581 -0.789582 -1.917051
  H 0.649839 0.514113 1.331161
  H 0.840466 -0.864521 0.253700
  H 0.840210 0.764223 -0.400595
  H 3.973615 1.528406 1.500116
  H 3.973779 -0.100854 2.154619
  H 3.002150 -0.718484 -1.738572
  H 5.242334 -0.200009 -0.447707
  H 5.030008 -2.381593 -3.545814
  H 5.030324 -0.765028 -4.194437
  H 2.572843 -0.594810 -3.822750
  H 2.572502 -2.246950 -3.159967
  H 3.429616 -1.469408 -5.982512
  H 1.912290 -2.237801 -5.528146
  H 3.429280 -3.107727 -5.325295
  H 5.512991 -0.256731 -0.588381
 26
 0.000000
  C 1.159454 0.173167 0.482339
  C 2.630522 0.227381 0.616964
  C 3.287978 0.723806 1.852609
  H 2.654923 1.045321 2.653112
  C 3.667502 -0.389716 -0.919812
  C 4.551895 -0.505674 -1.209000
  C 4.962789 -0.885098 -2.154866
  C 4.554627 -1.419308 -3.486503
  C 3.086598 -1.572335 -3.868613
  C 2.957715 -2.138502 -5.280016
  O 5.746996 -0.808144 -1.963302
  H 0.627170 0.525224 1.358840
  H 0.842975 -0.852141 0.284504
  H 0.842731 0.776608 -0.369778
  H 3.941590 1.560100 1.579111
  H 3.941742 -0.069166 2.233599
  H 3.097198 -0.730069 -1.767466
  H 5.295427 -0.211573 -0.476524
  H 5.039754 -2.397357 -3.585097
  H 5.040065 -0.780793 -4.233724
  H 2.585870 -0.603379 -3.844083
  H 2.585534 -2.255518 -3.181297
  H 3.424269 -1.480464 -6.010046
  H 1.908057 -2.244413 -5.544591
  H 3.423937 -3.118781 -5.352825
  H 5.379551 -0.249074 -0.569251
 26
 0.000000
  C 1.140293 0.192653 0.530858
  C 2.608558 0.256566 0.689663
  C 3.242307 0.757240 1.935937
  H 2.594059 1.074519 2.725903
  C 3.751723 -0.397651 -0.939585
  C 4.599223 -0.511323 -1.223065
  C 4.999815 -0.905729 -2.206276
  C 4.573560 -1.437979 -3.533026
  C 3.100444 -1.584092 -3.897894
  C 2.952361 -2.149610 -5.307677
  O 5.743547 -0.833793 -2.027212
  H 0.591348 0.541132 1.398469
  H 0.833884 -0.834709 0.327888
  H 0.833654 0.794045 -0.326382
  H 3.894796 1.597847 1.673191
  H 3.894935 -0.031424 2.327665
  H 3.197699 -0.741709 -1.796492
  H 5.354088 -0.221256 -0.500641
  H 5.052896 -2.418295 -3.637275
  H 5.053202 -0.801733 -4.285906
  H 2.604599 -0.612793 -3.867522
  H 2.604266 -2.264929 -3.204730
  H 3.413414 -1.493753 -6.043147
  H 1.899184 -2.250578 -5.559925
  H 3.413085 -3.132069 -5.385921
  H 5.268899 -0.247517 -0.565325
 26
 0.000000
  C 1.125412 0.202587 0.555600
  C 2.592323 0.270688 0.724844
  C 3.215761 0.773151 1.975591
  H 2.561008 1.088568 2.760925
  C 3.783463 -0.399695 -0.944672
  C 4.617569 -0.511924 -1.224552
  C 5.016408 -0.914146 -2.227248
  C 4.581975 -1.445480 -3.551712
  C 3.106631 -1.588451 -3.908748
  C 2.949854 -2.153645 -5.317722
  O 5.747493 -0.844472 -2.053819
  H 0.569318 0.549487 1.419283
  H 0.823388 -0.825642 0.350462
  H 0.823163 0.803114 -0.303803
  H 3.867702 1.615621 1.717487
  H 3.867834 -0.013652 2.371956
  H 3.236532 -0.745321 -1.805495
  H 5.375885 -0.223110 -0.505249
  H 5.058660 -2.426815 -3.658502
  H 5.058965 -0.810253 -4.307135
  H 2.613024 -0.616097 -3.875746
  H 2.612692 -2.268233 -3.212952
  H 3.408389 -1.498769 -6.055636
  H 1.895137 -2.252367 -5.564370
  H 3.408061 -3.137084 -5.398408
  H 5.231936 -0.246889 -0.563741
 26
 0.000000
  C 1.058111 0.251855 0.678281
  C 2.517448 0.339667 0.896678
  C 3.091700 0.850174 2.167541
  H 2.406758 1.156548 2.930371
  C 3.964921 -0.414108 -0.980569
  C 4.728932 -0.518227 -1.240211
  C 5.116555 -0.967991 -2.361425
  C 4.628999 -1.492894 -3.669858
  C 3.140297 -1.615199 -3.975375
  C 2.926792 -2.177809 -5.377906
  O 5.794680 -0.911842 -2.221689
  H 0.468708 0.591019 1.522722
  H 0.777028 -0.780298 0.463335
  H 0.776834 0.848467 -0.190908
  H 3.740527 1.701412 1.931301
  H 3.740629 0.072129 2.585745
  H 3.451917 -0.766861 -1.859194
  H 5.505337 -0.236167 -0.537733
  H 5.087957 -2.480752 -3.792907
  H 5.088256 -0.864195 -4.441551
  H 2.661740 -0.636068 -3.925478
  H 2.661410 -2.288199 -3.262673
  H 3.368490 -1.529208 -6.131464
  H 1.862873 -2.261759 -5.587730
  H 3.368164 -3.167519 -5.474225
  H 5.082964 -0.261088 -0.599051
