 19
 0.000000
  C -1.777077 1.175461 -0.064607
  C -1.099915 -0.154147 0.066612
  C -1.430229 -0.876479 1.354262
  C -1.323763 -1.221220 -1.063079
  C -2.352637 -0.859595 -2.077451
  O -0.723565 -2.245480 -1.044252
  H -1.427737 1.816052 0.748696
  H -2.857783 1.111082 0.050649
  H -1.517462 1.679681 -0.991190
  H -0.008478 0.001421 -0.001918
  H -2.492006 -1.106240 1.447050
  H -1.183378 -0.220820 2.190706
  H -0.868442 -1.803428 1.436146
  H -2.763731 0.132811 -1.967936
  H -3.141878 -1.610999 -2.000493
  H -1.885981 -0.978342 -3.057502
  O 2.234515 -0.001351 -0.051235
  H 2.760935 -0.471295 -0.702491
  H 2.833651 0.255730 0.654053
 19
 -0.615716
  C -1.778507 1.180783 -0.049022
  C -1.080688 -0.135964 0.090603
  C -1.405798 -0.870559 1.365815
  C -1.275553 -1.204080 -1.058398
  C -2.295698 -0.852172 -2.078960
  O -0.660307 -2.220054 -1.034262
  H -1.419504 1.834429 0.749473
  H -2.853543 1.105284 0.094526
  H -1.539495 1.679477 -0.983007
  H 0.007377 0.020856 -0.032493
  H -2.468934 -1.095129 1.453258
  H -1.164544 -0.222843 2.210329
  H -0.842533 -1.797251 1.446709
  H -2.725723 0.133362 -1.968525
  H -3.075532 -1.612955 -2.015734
  H -1.819666 -0.962153 -3.055225
  O 2.084887 -0.041951 -0.091516
  H 2.599042 -0.524015 -0.743741
  H 2.685060 0.204955 0.616660
 19
 -0.674017
  C -1.776425 1.180823 -0.047300
  C -1.081772 -0.137293 0.097526
  C -1.420829 -0.872535 1.370868
  C -1.260003 -1.202659 -1.048747
  C -2.278139 -0.858183 -2.076429
  O -0.639755 -2.215798 -1.025796
  H -1.423276 1.835892 0.753114
  H -2.854520 1.105569 0.086985
  H -1.529621 1.677981 -0.980471
  H 0.008964 0.028578 0.005761
  H -2.483773 -1.099975 1.448038
  H -1.190465 -0.224887 2.216549
  H -0.856520 -1.798562 1.455717
  H -2.715574 0.123478 -1.967056
  H -3.052317 -1.627212 -2.018565
  H -1.796597 -0.961614 -3.049135
  O 2.068783 -0.028798 -0.119912
  H 2.570297 -0.524022 -0.773711
  H 2.680546 0.214567 0.581985
 19
 -1.275187
  C -1.711279 1.166891 -0.013803
  C -1.066481 -0.180194 0.097731
  C -1.403918 -0.919331 1.370194
  C -1.263820 -1.206417 -1.062718
  C -2.243329 -0.803577 -2.110476
  O -0.693057 -2.252495 -1.051311
  H -1.349218 1.788585 0.807676
  H -2.792815 1.122019 0.108750
  H -1.445428 1.677294 -0.934468
  H 0.041342 -0.040291 0.021278
  H -2.469522 -1.137190 1.449013
  H -1.164008 -0.287733 2.224883
  H -0.857616 -1.856989 1.435057
  H -2.639742 0.194735 -1.993581
  H -3.051135 -1.537263 -2.084784
  H -1.745097 -0.911142 -3.074792
  O 1.921515 0.043787 -0.135615
  H 2.414854 -0.486211 -0.768564
  H 2.495175 0.233223 0.613851
 19
 -1.937984
  C -1.696180 1.136587 -0.088989
  C -1.052800 -0.205965 0.082723
  C -1.305795 -0.851573 1.421859
  C -1.251305 -1.289906 -1.003485
  C -2.204927 -0.947736 -2.099647
  O -0.707507 -2.353108 -0.915941
  H -1.337241 1.801388 0.697245
  H -2.777928 1.090667 0.042769
  H -1.449539 1.594254 -1.041788
  H 0.069501 -0.055659 -0.042952
  H -2.359968 -1.103656 1.554983
  H -1.061097 -0.157596 2.222539
  H -0.732724 -1.771079 1.524310
  H -2.584790 0.063021 -2.059811
  H -3.028142 -1.661284 -2.041941
  H -1.692957 -1.130076 -3.045168
  O 1.722882 0.284291 -0.190526
  H 2.245947 -0.306063 -0.744450
  H 2.213931 0.468407 0.618830
 19
 -1.920144
  C -1.637358 1.142122 -0.062308
  C -1.073422 -0.237948 0.079505
  C -1.239058 -0.860986 1.439277
  C -1.311868 -1.284418 -1.006043
  C -2.188881 -0.884305 -2.148706
  O -0.854017 -2.395422 -0.901969
  H -1.256961 1.775533 0.737317
  H -2.722235 1.140667 0.058521
  H -1.381402 1.598868 -1.013128
  H 0.091261 -0.095060 -0.072716
  H -2.286665 -1.106615 1.630547
  H -0.940916 -0.171262 2.224529
  H -0.683589 -1.795308 1.505411
  H -2.499560 0.150489 -2.125432
  H -3.063285 -1.534087 -2.133131
  H -1.652782 -1.102077 -3.072152
  O 1.550070 0.277801 -0.206616
  H 2.041851 -0.355321 -0.746411
  H 1.977176 0.357744 0.656809
 19
 -1.497334
  C -1.625736 1.140290 -0.063876
  C -1.109531 -0.251419 0.075400
  C -1.194629 -0.849677 1.445658
  C -1.336741 -1.262400 -0.989509
  C -2.189256 -0.878748 -2.165531
  O -0.877183 -2.393020 -0.886746
  H -1.227747 1.767627 0.731115
  H -2.711136 1.158296 0.055294
  H -1.374502 1.587610 -1.021035
  H 0.293218 -0.083866 -0.102027
  H -2.233459 -1.102299 1.673455
  H -0.869642 -0.153725 2.214151
  H -0.635375 -1.782832 1.499030
  H -2.508567 0.153883 -2.159887
  H -3.061844 -1.530474 -2.166707
  H -1.637631 -1.097110 -3.078465
  O 1.427559 0.243274 -0.180796
  H 1.933226 -0.376496 -0.737888
  H 1.838912 0.328002 0.699490
 19
 -4.919085
  C -1.673352 1.135160 -0.044733
  C -1.222447 -0.274966 0.090674
  C -1.195581 -0.851951 1.464475
  C -1.405494 -1.250056 -0.970238
  C -2.196688 -0.861200 -2.196374
  O -0.944987 -2.393809 -0.864340
  H -1.255157 1.746087 0.750719
  H -2.758834 1.194297 0.065883
  H -1.409071 1.570895 -1.003723
  H 0.455810 -0.065194 -0.106365
  H -2.216996 -1.120436 1.762706
  H -0.831905 -0.143941 2.202688
  H -0.624442 -1.779920 1.487235
  H -2.522494 0.172804 -2.198952
  H -3.069158 -1.513940 -2.248409
  H -1.601375 -1.068474 -3.082031
  O 1.433030 0.216865 -0.175983
  H 1.940135 -0.407040 -0.733380
  H 1.846738 0.290178 0.707162
 19
 -6.536862
  C -1.683998 1.134463 -0.031829
  C -1.319646 -0.297137 0.106981
  C -1.143298 -0.850713 1.479642
  C -1.464957 -1.257487 -0.962319
  C -2.163367 -0.848804 -2.234540
  O -1.035618 -2.416720 -0.835426
  H -1.235816 1.726089 0.763990
  H -2.766601 1.253915 0.070148
  H -1.402956 1.549415 -0.996393
  H 0.477940 -0.080177 -0.125612
  H -2.123615 -1.124808 1.879489
  H -0.719083 -0.128848 2.170765
  H -0.570872 -1.778697 1.456191
  H -2.479204 0.185570 -2.244779
  H -3.036598 -1.488329 -2.355146
  H -1.512187 -1.050374 -3.083043
  O 1.438972 0.202338 -0.168954
  H 1.962033 -0.406985 -0.728843
  H 1.836621 0.276855 0.721772
 19
 -7.860943
  C -1.685565 1.100952 -0.035072
  C -1.422876 -0.349998 0.123353
  C -1.140323 -0.881987 1.479893
  C -1.611040 -1.303266 -0.933147
  C -2.195105 -0.854435 -2.250426
  O -1.303158 -2.501550 -0.770044
  H -1.285295 1.663171 0.803542
  H -2.762718 1.281681 -0.051434
  H -1.291878 1.499562 -0.968265
  H 0.609292 -0.077322 -0.135722
  H -2.088882 -1.117383 1.970308
  H -0.636405 -0.162383 2.117020
  H -0.604822 -1.828891 1.420648
  H -2.442832 0.199386 -2.279529
  H -3.096361 -1.437516 -2.436548
  H -1.499969 -1.096733 -3.051369
  O 1.516858 0.308485 -0.146036
  H 2.109461 -0.207284 -0.733823
  H 1.889371 0.365076 0.758745
