9

H -2.4617277127437602 0.7015199191212043 -0.05507731148279249
C -2.049888 0.586999 -0.021505
C -1.647952 -0.481936 0.645565
C -0.236758 -0.953561 0.811495
H 0.07233328559720675 -0.6953122400154459 0.6034959782811097
H -1.336469 1.227984 -0.516831
H -2.38643 -1.105869 1.133692
H -0.006414 -0.996681 1.883408
H -0.170354 -1.975875 0.426967
