 28
 0.000000
  C 0.960177 0.147740 0.420942
  C 2.433119 0.140802 0.402202
  C 3.232829 0.605298 1.556686
  C 2.471899 1.097576 2.781990
  H 3.164712 1.408106 3.553866
  C 3.037967 -0.326741 -0.761367
  C 4.419783 -0.414170 -0.979851
  C 5.086174 -0.861538 -2.095159
  C 4.613838 -1.381132 -3.391203
  C 3.130230 -1.508679 -3.710969
  C 2.934510 -2.072286 -5.116885
  H 6.166770 -0.849163 -2.064026
  H 0.538941 0.520099 1.347268
  H 0.583549 -0.862456 0.253608
  H 0.582769 0.760530 -0.399068
  H 3.890971 1.411525 1.213363
  H 3.891651 -0.213720 1.866795
  H 1.839539 0.308977 3.185425
  H 1.838954 1.945611 2.527551
  H 2.372843 -0.642927 -1.547610
  H 5.046182 -0.085000 -0.160094
  H 5.081978 -2.366890 -3.513146
  H 5.082772 -0.753207 -4.160341
  H 2.648377 -0.530926 -3.665094
  H 2.647626 -2.183526 -3.002501
  H 3.382398 -1.422098 -5.864928
  H 1.874374 -2.161567 -5.340796
  H 3.381698 -3.059498 -5.208430
 28
 0.708065
  C 0.975342 0.372756 0.342214
  C 2.446132 0.195941 0.389241
  C 3.220903 0.470641 1.616291
  C 2.455787 0.970111 2.831024
  H 3.155114 1.169199 3.638380
  C 3.039849 -0.323813 -0.757967
  C 4.414969 -0.293753 -1.032252
  C 5.066605 -0.740209 -2.156102
  C 4.605264 -1.342459 -3.410873
  C 3.126383 -1.584566 -3.688012
  C 2.935676 -2.188701 -5.075607
  H 6.148845 -0.661644 -2.121539
  H 0.570591 0.779219 1.258585
  H 0.514190 -0.592741 0.134383
  H 0.721048 1.028427 -0.491896
  H 3.974455 1.227277 1.358422
  H 3.785866 -0.428662 1.881199
  H 1.739884 0.229609 3.181513
  H 1.927518 1.896249 2.616231
  H 2.377518 -0.725951 -1.505362
  H 5.047553 0.147674 -0.272061
  H 5.145715 -2.290128 -3.514566
  H 5.019946 -0.723977 -4.218611
  H 2.578895 -0.641572 -3.644715
  H 2.712716 -2.273367 -2.949717
  H 3.309283 -1.519490 -5.848207
  H 1.878864 -2.363156 -5.269005
  H 3.453429 -3.141949 -5.162248
 28
 9.941043
  C 1.063528 0.555911 0.251664
  C 2.550824 0.188564 0.422057
  C 3.165972 0.258348 1.754963
  C 2.385321 0.965054 2.856100
  H 3.008935 1.020097 3.737160
  C 3.093739 -0.315883 -0.744847
  C 4.453995 -0.217296 -1.083741
  C 5.062950 -0.624461 -2.246961
  C 4.573894 -1.257289 -3.480058
  C 3.115253 -1.687437 -3.642515
  C 2.905666 -2.321600 -5.022963
  H 6.138278 -0.470221 -2.275802
  H 0.627668 0.899535 1.178690
  H 0.586706 -0.369247 -0.076259
  H 1.051235 1.349826 -0.486408
  H 4.049916 0.883923 1.576471
  H 3.484690 -0.730298 2.075655
  H 1.466078 0.435888 3.109088
  H 2.148188 1.990442 2.576450
  H 2.427520 -0.674449 -1.520358
  H 5.093795 0.210701 -0.323535
  H 5.212214 -2.137204 -3.618884
  H 4.854081 -0.609235 -4.317292
  H 2.465681 -0.814071 -3.577049
  H 2.859303 -2.434706 -2.887551
  H 3.111954 -1.611131 -5.821963
  H 1.867529 -2.624945 -5.135385
  H 3.519064 -3.207930 -5.148049
 28
 31.000357
  C 1.190896 0.636570 0.189192
  C 2.765669 0.202830 0.467050
  C 3.150311 0.265961 1.862181
  C 2.227190 0.951746 2.858345
  H 2.697957 0.897063 3.836274
  C 3.200788 -0.282194 -0.737003
  C 4.540120 -0.151468 -1.188649
  C 5.080210 -0.578053 -2.366906
  C 4.553583 -1.265011 -3.561324
  C 3.096598 -1.703814 -3.608927
  C 2.795351 -2.405498 -4.938073
  H 6.148082 -0.382415 -2.454236
  H 0.715800 0.987264 1.100223
  H 0.809140 -0.297274 -0.181087
  H 1.354757 1.399099 -0.554813
  H 4.079328 0.862406 1.847796
  H 3.366212 -0.750897 2.200684
  H 1.280828 0.414846 2.948485
  H 2.054502 1.994269 2.612295
  H 2.553033 -0.744733 -1.449387
  H 5.205094 0.334469 -0.479637
  H 5.198300 -2.139665 -3.718292
  H 4.725546 -0.570833 -4.399057
  H 2.427577 -0.851371 -3.504139
  H 2.909779 -2.431567 -2.815071
  H 2.989786 -1.738159 -5.772608
  H 1.760201 -2.733594 -4.989504
  H 3.440930 -3.266904 -5.069756
 28
 59.579406
  C 1.039733 0.452921 0.046876
  C 2.993982 0.134466 0.513114
  C 3.229338 0.333379 1.919238
  C 2.167329 1.029761 2.768794
  H 2.541136 1.138135 3.779805
  C 3.409257 -0.352136 -0.669278
  C 4.726359 -0.220255 -1.183199
  C 5.184288 -0.622078 -2.379979
  C 4.550348 -1.280675 -3.545966
  C 3.069019 -1.636231 -3.523981
  C 2.665231 -2.276489 -4.845958
  H 6.242037 -0.452463 -2.536225
  H 0.555040 0.812187 0.928295
  H 0.832572 -0.559327 -0.248492
  H 1.238058 1.161685 -0.730023
  H 4.138756 0.944696 1.966563
  H 3.486387 -0.634287 2.384300
  H 1.267074 0.423239 2.827903
  H 1.918637 2.011166 2.372360
  H 2.697548 -0.817901 -1.340799
  H 5.427840 0.282834 -0.537280
  H 5.125582 -2.190981 -3.755634
  H 4.731144 -0.605037 -4.402063
  H 2.459066 -0.746872 -3.392867
  H 2.862755 -2.354330 -2.732462
  H 2.862793 -1.609902 -5.675276
  H 1.612997 -2.528970 -4.845966
  H 3.234688 -3.181351 -5.021837
 28
 78.896792
  C 0.907665 0.398294 -0.029891
  C 3.143529 0.064057 0.583694
  C 3.243678 0.262533 1.992556
  C 2.188381 1.097594 2.714772
  H 2.489122 1.245549 3.754466
  C 3.512194 -0.380277 -0.586726
  C 4.819350 -0.201411 -1.188135
  C 5.211320 -0.563165 -2.434186
  C 4.529549 -1.217846 -3.589088
  C 3.066479 -1.632963 -3.489631
  C 2.614245 -2.297054 -4.787486
  H 6.255272 -0.369842 -2.659114
  H 0.350111 0.750067 0.809266
  H 0.791320 -0.628651 -0.312520
  H 1.211044 1.113892 -0.766101
  H 4.195222 0.820445 2.083042
  H 3.383712 -0.699392 2.496260
  H 1.234822 0.577725 2.712244
  H 2.062454 2.068369 2.244770
  H 2.802565 -0.883338 -1.227420
  H 5.541632 0.297291 -0.550431
  H 5.121057 -2.107293 -3.833674
  H 4.642044 -0.542327 -4.444707
  H 2.431337 -0.762033 -3.317214
  H 2.935124 -2.357699 -2.683327
  H 2.719065 -1.614807 -5.628965
  H 1.571879 -2.599604 -4.720652
  H 3.211647 -3.182134 -4.996831
 28
 86.891946
  C 0.788233 0.442106 -0.138011
  C 3.252342 0.016086 0.619481
  C 3.274708 0.241910 2.015083
  C 2.176887 1.100566 2.642113
  H 2.411806 1.277997 3.688024
  C 3.591264 -0.374571 -0.559491
  C 4.887095 -0.192173 -1.204195
  C 5.237630 -0.566364 -2.442185
  C 4.522134 -1.238080 -3.566528
  C 3.064098 -1.657789 -3.413462
  C 2.564862 -2.310152 -4.700328
  H 6.262753 -0.334955 -2.715370
  H 0.197712 0.800591 0.679243
  H 0.707901 -0.590386 -0.410485
  H 1.188962 1.153467 -0.829918
  H 4.216784 0.803702 2.144012
  H 3.376321 -0.704529 2.553785
  H 1.229228 0.579257 2.591621
  H 2.087719 2.056330 2.138061
  H 2.867172 -0.859946 -1.201165
  H 5.622266 0.303206 -0.589513
  H 5.112011 -2.123394 -3.827843
  H 4.602438 -0.570555 -4.430793
  H 2.437141 -0.784421 -3.218540
  H 2.963121 -2.388505 -2.608244
  H 2.635818 -1.619643 -5.537243
  H 1.526161 -2.612020 -4.597778
  H 3.151674 -3.193772 -4.939442
 28
 90.566567
  C 0.651256 0.373018 -0.249370
  C 3.399668 -0.008767 0.659362
  C 3.331573 0.261619 2.036740
  C 2.149830 1.096862 2.542611
  H 2.294344 1.324713 3.594129
  C 3.717377 -0.396317 -0.519462
  C 4.991092 -0.215286 -1.210291
  C 5.285729 -0.584350 -2.458000
  C 4.510617 -1.235340 -3.552135
  C 3.048879 -1.618831 -3.335477
  C 2.475301 -2.253965 -4.601073
  H 6.304152 -0.377656 -2.766973
  H 0.020838 0.732300 0.536018
  H 0.637097 -0.670378 -0.484754
  H 1.086318 1.078309 -0.925173
  H 4.236734 0.872390 2.205878
  H 3.432125 -0.659148 2.620063
  H 1.231777 0.528152 2.438011
  H 2.058898 2.028382 1.993070
  H 2.966685 -0.871425 -1.141071
  H 5.756495 0.264426 -0.618881
  H 5.068098 -2.133166 -3.840322
  H 4.569972 -0.565195 -4.416934
  H 2.455811 -0.729976 -3.110457
  H 2.966895 -2.350172 -2.528560
  H 2.528190 -1.562463 -5.439515
  H 1.433426 -2.528178 -4.453464
  H 3.027581 -3.152850 -4.867358
 28
 91.312890
  C 0.572836 0.217393 -0.267533
  C 3.528818 -0.020266 0.685618
  C 3.398240 0.270919 2.051285
  C 2.155826 1.063519 2.475909
  H 2.233272 1.326784 3.525939
  C 3.813668 -0.358466 -0.512457
  C 5.027559 -0.112034 -1.282654
  C 5.257034 -0.463687 -2.546809
  C 4.443475 -1.154098 -3.586539
  C 3.023192 -1.612893 -3.268595
  C 2.395910 -2.279734 -4.491180
  H 6.238119 -0.203975 -2.923779
  H -0.099556 0.531830 0.504036
  H 0.647379 -0.823285 -0.498919
  H 1.005446 0.952194 -0.911791
  H 4.269024 0.927683 2.234397
  H 3.525152 -0.626065 2.665870
  H 1.272162 0.449028 2.337517
  H 2.049497 1.973327 1.892822
  H 3.053121 -0.880967 -1.086186
  H 5.802610 0.404709 -0.738911
  H 5.025285 -2.021159 -3.915510
  H 4.407285 -0.482198 -4.450571
  H 2.401939 -0.756084 -3.002103
  H 3.036614 -2.346475 -2.459789
  H 2.352578 -1.587630 -5.329771
  H 1.383260 -2.608616 -4.270689
  H 2.974668 -3.148275 -4.797661
 28
 91.076793
  C 0.466632 0.299485 -0.424494
  C 3.594592 -0.110856 0.746207
  C 3.369388 0.172528 2.092629
  C 2.190906 1.099310 2.402367
  H 2.184808 1.344591 3.460890
  C 3.869026 -0.387084 -0.467935
  C 5.027094 -0.059448 -1.286047
  C 5.220529 -0.380133 -2.565531
  C 4.402996 -1.110616 -3.576869
  C 3.029244 -1.664235 -3.198052
  C 2.385591 -2.357561 -4.399949
  H 6.162467 -0.050820 -2.983760
  H -0.218012 0.612135 0.335943
  H 0.511563 -0.733052 -0.691076
  H 0.961188 1.036340 -1.016635
  H 4.298109 0.703651 2.374335
  H 3.342151 -0.738978 2.698720
  H 1.258299 0.597682 2.156184
  H 2.251827 2.020248 1.828609
  H 3.116808 -0.957197 -1.008571
  H 5.791866 0.498569 -0.769330
  H 5.023191 -1.935052 -3.946069
  H 4.282598 -0.432470 -4.428672
  H 2.368138 -0.851313 -2.890370
  H 3.128039 -2.405279 -2.401552
  H 2.257224 -1.659411 -5.226895
  H 1.406254 -2.753842 -4.135525
  H 3.003339 -3.184713 -4.746263
 28
 90.897667
  C 0.442018 0.477191 -0.748430
  C 3.633987 -0.197952 0.817943
  C 3.312293 0.086377 2.143929
  C 2.220960 1.138836 2.353132
  H 2.128434 1.366021 3.411193
  C 3.891708 -0.434938 -0.406094
  C 5.031800 -0.105294 -1.247048
  C 5.200823 -0.414464 -2.532496
  C 4.362200 -1.139643 -3.529777
  C 3.000490 -1.692967 -3.115721
  C 2.321005 -2.381822 -4.301211
  H 6.130933 -0.080241 -2.968627
  H -0.251488 0.816704 -0.009934
  H 0.427359 -0.548462 -1.043087
  H 1.022523 1.190592 -1.287721
  H 4.264714 0.480857 2.543864
  H 3.118134 -0.827483 2.716329
  H 1.268755 0.759543 1.995633
  H 2.450737 2.056146 1.815760
  H 3.120090 -1.007561 -0.925419
  H 5.806117 0.446351 -0.740557
  H 4.974007 -1.961362 -3.917535
  H 4.220332 -0.457721 -4.375045
  H 2.352170 -0.880849 -2.787681
  H 3.120852 -2.436708 -2.323767
  H 2.169862 -1.679990 -5.122357
  H 1.349113 -2.777641 -4.010151
  H 2.927132 -3.208973 -4.668069
 28
 91.019421
  C 0.274787 0.501590 -0.980654
  C 3.682473 -0.197361 0.854439
  C 3.335131 0.099825 2.170230
  C 2.221299 1.141854 2.331342
  H 2.096571 1.381698 3.382205
  C 3.931140 -0.447061 -0.367266
  C 5.077981 -0.170092 -1.214957
  C 5.228952 -0.489732 -2.500887
  C 4.356842 -1.181861 -3.491605
  C 2.976512 -1.678052 -3.068138
  C 2.261458 -2.337856 -4.246664
  H 6.173789 -0.194042 -2.942821
  H -0.405532 0.838122 -0.227994
  H 0.271429 -0.527320 -1.268116
  H 0.853265 1.216737 -1.523514
  H 4.266353 0.518228 2.592668
  H 3.132741 -0.808715 2.747803
  H 1.284329 0.744462 1.952967
  H 2.454880 2.053017 1.789355
  H 3.131211 -0.991220 -0.879355
  H 5.878897 0.351811 -0.712495
  H 4.932487 -2.029032 -3.880725
  H 4.238150 -0.496192 -4.338012
  H 2.363943 -0.837311 -2.735714
  H 3.071905 -2.425451 -2.276744
  H 2.133190 -1.632166 -5.064943
  H 1.277850 -2.693297 -3.948632
  H 2.830051 -3.188306 -4.617464
 28
 91.022044
  C 0.187809 0.528800 -1.071181
  C 3.694018 -0.200109 0.861171
  C 3.336674 0.086021 2.178617
  C 2.227687 1.133229 2.339447
  H 2.092702 1.361664 3.391355
  C 3.934048 -0.446490 -0.364657
  C 5.066548 -0.159762 -1.226146
  C 5.203705 -0.477243 -2.514936
  C 4.323668 -1.176485 -3.493977
  C 2.954990 -1.684366 -3.050734
  C 2.227265 -2.347766 -4.219709
  H 6.138617 -0.171903 -2.969367
  H -0.489243 0.860917 -0.314319
  H 0.185941 -0.498790 -1.363271
  H 0.769166 1.245949 -1.608200
  H 4.266699 0.486605 2.620021
  H 3.121714 -0.828437 2.742436
  H 1.291695 0.747409 1.945684
  H 2.473292 2.048939 1.810880
  H 3.135235 -1.005215 -0.863308
  H 5.868400 0.369113 -0.734446
  H 4.900485 -2.017929 -3.892282
  H 4.187081 -0.491497 -4.337633
  H 2.341004 -0.848906 -2.707156
  H 3.068679 -2.432553 -2.262402
  H 2.080445 -1.641513 -5.034145
  H 1.251331 -2.712376 -3.907395
  H 2.797234 -3.192333 -4.601367
 28
 91.127740
  C -0.130984 0.509681 -1.331797
  C 3.807038 -0.222150 0.899389
  C 3.454663 0.036764 2.223306
  C 2.358215 1.089225 2.420017
  H 2.223906 1.284254 3.478088
  C 4.028952 -0.448532 -0.333565
  C 5.080219 -0.045698 -1.248257
  C 5.168629 -0.328258 -2.549356
  C 4.293524 -1.082646 -3.491405
  C 3.000409 -1.716472 -2.982876
  C 2.258425 -2.407741 -4.127569
  H 6.040389 0.070346 -3.051083
  H -0.805298 0.821082 -0.567350
  H -0.103655 -0.515290 -1.625090
  H 0.442626 1.237364 -1.859701
  H 4.393149 0.379716 2.695336
  H 3.223469 -0.896141 2.752136
  H 1.413865 0.733074 2.012026
  H 2.616406 2.020147 1.924404
  H 3.279860 -1.110038 -0.790244
  H 5.855218 0.550496 -0.792609
  H 4.914251 -1.862433 -3.945188
  H 4.047471 -0.393708 -4.307568
  H 2.340953 -0.945092 -2.574372
  H 3.224520 -2.475081 -2.227612
  H 2.000471 -1.694327 -4.907573
  H 1.337853 -2.865501 -3.767765
  H 2.872346 -3.188065 -4.570743
