 22
 0.000000
  C 0.980240 0.159571 0.449096
  C 2.450696 0.135651 0.389297
  C 3.235741 0.599863 1.544183
  H 2.611461 0.930023 2.366385
  C 3.042937 -0.333469 -0.778397
  C 4.424664 -0.417880 -0.989405
  C 5.088740 -0.866096 -2.107378
  C 4.628773 -1.385185 -3.401918
  C 3.148305 -1.513086 -3.720829
  H 3.032116 -1.914877 -4.723113
  H 6.170195 -0.843253 -2.050818
  H 0.607360 0.539676 1.394756
  H 0.580953 -0.843332 0.288696
  H 0.580729 0.772430 -0.360713
  H 3.891523 1.420451 1.248132
  H 3.891875 -0.197171 1.898143
  H 2.374984 -0.648476 -1.562212
  H 5.056067 -0.090460 -0.173847
  H 5.107822 -2.366319 -3.524545
  H 5.107900 -0.760652 -4.168441
  H 2.655401 -0.544395 -3.691387
  H 2.655500 -2.193282 -3.030413
 22
 10.193995
  C 0.963418 0.171504 0.478796
  C 2.434412 0.150166 0.425521
  C 3.212089 0.616434 1.585529
  H 2.577877 0.944302 2.402048
  C 3.034282 -0.318733 -0.741592
  C 4.403892 -0.398090 -0.940060
  C 5.138297 -0.899579 -2.190911
  C 4.657141 -1.410704 -3.465541
  C 3.168547 -1.525358 -3.751394
  H 3.025979 -1.926302 -4.751550
  H 6.216442 -0.875367 -2.130931
  H 0.586145 0.551035 1.422995
  H 0.566534 -0.831816 0.315668
  H 0.566355 0.782794 -0.333283
  H 3.866918 1.439729 1.295954
  H 3.867287 -0.178055 1.946025
  H 2.371249 -0.635887 -1.530751
  H 5.043579 -0.074728 -0.134612
  H 5.128367 -2.395395 -3.597593
  H 5.128437 -0.790131 -4.241365
  H 2.685252 -0.552712 -3.710951
  H 2.685332 -2.200809 -3.050294
 22
 30.456014
  C 0.957600 0.170120 0.475360
  C 2.428998 0.155349 0.438540
  C 3.191298 0.624834 1.606503
  H 2.534238 0.947865 2.410445
  C 3.044071 -0.310056 -0.719799
  C 4.397635 -0.375035 -0.882428
  C 5.195159 -0.931206 -2.269724
  C 4.663342 -1.426945 -3.506100
  C 3.168391 -1.518876 -3.735331
  H 2.983022 -1.917883 -4.730761
  H 6.263536 -0.891162 -2.170211
  H 0.565875 0.547667 1.414708
  H 0.568451 -0.834221 0.300644
  H 0.568308 0.774212 -0.345760
  H 3.840409 1.456686 1.332050
  H 3.840831 -0.165190 1.983968
  H 2.394200 -0.630364 -1.516459
  H 5.079788 -0.067824 -0.117068
  H 5.119272 -2.414442 -3.662673
  H 5.119279 -0.821270 -4.301489
  H 2.703030 -0.538718 -3.680296
  H 2.703012 -2.189694 -3.018533
 22
 53.358138
  C 0.933893 0.183933 0.510139
  C 2.406613 0.172715 0.482097
  C 3.162827 0.645434 1.657134
  H 2.500464 0.966360 2.455258
  C 3.036329 -0.295876 -0.683496
  C 4.384861 -0.354992 -0.831546
  C 5.249721 -0.964881 -2.353151
  C 4.691663 -1.456136 -3.578931
  C 3.186058 -1.535510 -3.777348
  H 2.974775 -1.932247 -4.767650
  H 6.317171 -0.917482 -2.235207
  H 0.537538 0.560624 1.446772
  H 0.547327 -0.821808 0.334317
  H 0.547153 0.787885 -0.313000
  H 3.811980 1.478801 1.386856
  H 3.812490 -0.142541 2.039105
  H 2.391230 -0.618996 -1.486871
  H 5.091129 -0.054526 -0.083001
  H 5.140229 -2.450711 -3.745280
  H 5.140362 -0.851861 -4.386094
  H 2.731185 -0.551299 -3.711378
  H 2.730961 -2.201831 -3.050147
 22
 75.810540
  C 0.920514 0.192031 0.530230
  C 2.390001 0.185027 0.512798
  C 3.137544 0.657493 1.687148
  H 2.469372 0.977094 2.481834
  C 3.025088 -0.278985 -0.641310
  C 4.368164 -0.331973 -0.773986
  C 5.296990 -0.996308 -2.431461
  C 4.711660 -1.480524 -3.639841
  C 3.204673 -1.544882 -3.800635
  H 2.963763 -1.939179 -4.785067
  H 6.359765 -0.941757 -2.295747
  H 0.517921 0.568034 1.465100
  H 0.537699 -0.814571 0.352453
  H 0.537603 0.795279 -0.294922
  H 3.786655 1.491797 1.419820
  H 3.787118 -0.129113 2.071985
  H 2.387514 -0.602704 -1.446228
  H 5.097919 -0.040846 -0.048640
  H 5.147421 -2.477554 -3.816203
  H 5.147444 -0.881210 -4.455805
  H 2.763123 -0.555803 -3.722032
  H 2.762973 -2.206190 -3.060997
 22
 95.952261
  C 0.892577 0.205050 0.562779
  C 2.367080 0.203214 0.558076
  C 3.107693 0.679924 1.742873
  H 2.432770 0.997549 2.532687
  C 3.022168 -0.265049 -0.606610
  C 4.361014 -0.313254 -0.727322
  C 5.350935 -1.032686 -2.521921
  C 4.740111 -1.510552 -3.714641
  C 3.225952 -1.559987 -3.838406
  H 2.955031 -1.951605 -4.816300
  H 6.411592 -0.973197 -2.373784
  H 0.481591 0.579778 1.494534
  H 0.513848 -0.803042 0.382481
  H 0.513718 0.807635 -0.265199
  H 3.756835 1.516211 1.480628
  H 3.757351 -0.104544 2.132757
  H 2.389354 -0.591950 -1.419314
  H 5.112600 -0.030492 -0.022769
  H 5.163734 -2.513442 -3.900550
  H 5.163878 -0.913522 -4.541514
  H 2.797670 -0.566032 -3.747266
  H 2.797488 -2.216180 -3.086416
 22
 113.312871
  C 0.884472 0.212262 0.580754
  C 2.352123 0.216020 0.590062
  C 3.081232 0.691744 1.772142
  H 2.400965 1.007469 2.557047
  C 3.011639 -0.245056 -0.556495
  C 4.341967 -0.287986 -0.664016
  C 5.393240 -1.062288 -2.595596
  C 4.758741 -1.535680 -3.777405
  C 3.242420 -1.571437 -3.867047
  H 2.944575 -1.959990 -4.837587
  H 6.451890 -0.997935 -2.435347
  H 0.465497 0.585667 1.509022
  H 0.510953 -0.796991 0.397903
  H 0.510909 0.813868 -0.249940
  H 3.729974 1.528988 1.513008
  H 3.730495 -0.091204 2.165073
  H 2.386828 -0.572429 -1.370248
  H 5.114455 -0.013342 0.020290
  H 5.169512 -2.542551 -3.971798
  H 5.169642 -0.941474 -4.613006
  H 2.827192 -0.573425 -3.764512
  H 2.827026 -2.222886 -3.104100
 22
 127.692673
  C 0.848987 0.226665 0.616502
  C 2.325483 0.236150 0.640141
  C 3.048335 0.717488 1.836342
  H 2.360404 1.031427 2.616903
  C 3.010261 -0.231226 -0.522149
  C 4.343545 -0.271513 -0.622985
  C 5.446147 -1.102581 -2.696076
  C 4.789993 -1.567857 -3.857647
  C 3.270037 -1.587291 -3.906366
  H 2.940391 -1.972374 -4.868378
  H 6.503146 -1.037476 -2.534011
  H 0.420157 0.598833 1.541830
  H 0.479687 -0.784292 0.430816
  H 0.479699 0.827671 -0.217343
  H 3.697268 1.557195 1.582839
  H 3.697758 -0.063382 2.234963
  H 2.388806 -0.562094 -1.344765
  H 5.134947 -0.005925 0.038854
  H 5.185620 -2.579385 -4.060911
  H 5.185676 -0.976277 -4.702829
  H 2.869918 -0.584379 -3.790800
  H 2.869835 -2.233407 -3.130638
 22
 139.103177
  C 0.848199 0.234796 0.636659
  C 2.312881 0.250401 0.675430
  C 3.021495 0.728899 1.865167
  H 2.328824 1.040282 2.639834
  C 2.998317 -0.205951 -0.459969
  C 4.315802 -0.242025 -0.550399
  C 5.479408 -1.128349 -2.760317
  C 4.807204 -1.594590 -3.924059
  C 3.284683 -1.605348 -3.951156
  H 2.937626 -1.988055 -4.907083
  H 6.539493 -1.061117 -2.592977
  H 0.411055 0.604914 1.557450
  H 0.485149 -0.777052 0.448174
  H 0.485110 0.834823 -0.199574
  H 3.669518 1.569238 1.614826
  H 3.670030 -0.050397 2.266210
  H 2.385922 -0.536347 -1.281557
  H 5.124596 0.017415 0.096176
  H 5.194175 -2.609439 -4.133043
  H 5.194259 -1.004665 -4.775773
  H 2.893591 -0.599989 -3.828192
  H 2.893494 -2.248000 -3.168308
 22
 145.620737
  C 0.824209 0.241808 0.654434
  C 2.286164 0.274517 0.735669
  C 2.964770 0.759317 1.940925
  H 2.258964 1.066295 2.705536
  C 3.016261 -0.175421 -0.384198
  C 4.338742 -0.214299 -0.482619
  C 5.494192 -1.168379 -2.859162
  C 4.833698 -1.631357 -4.015245
  C 3.312495 -1.619542 -3.986824
  H 2.918255 -1.995482 -4.926233
  H 6.568561 -1.137409 -2.782365
  H 0.352903 0.605989 1.560700
  H 0.480247 -0.774966 0.453397
  H 0.480084 0.836821 -0.194113
  H 3.614863 1.601682 1.699384
  H 3.615735 -0.015273 2.349254
  H 2.417800 -0.512056 -1.221615
  H 5.176765 0.029775 0.125932
  H 5.211274 -2.643177 -4.238780
  H 5.211661 -1.053899 -4.875479
  H 2.945668 -0.608368 -3.840346
  H 2.945155 -2.250052 -3.183101
 22
 149.015688
  C 0.798817 0.267445 0.718609
  C 2.257460 0.301641 0.803495
  C 2.928308 0.787880 2.011632
  H 2.218773 1.094350 2.774893
  C 3.002827 -0.153054 -0.327873
  C 4.319553 -0.192141 -0.427055
  C 5.529976 -1.202065 -2.942797
  C 4.870395 -1.670449 -4.112723
  C 3.343436 -1.659707 -4.087334
  H 2.948517 -2.036038 -5.027981
  H 6.617079 -1.180367 -2.888975
  H 0.322253 0.631642 1.624500
  H 0.457819 -0.749486 0.515481
  H 0.457631 0.860857 -0.131746
  H 3.578504 1.629902 1.772021
  H 3.579582 0.015096 2.421254
  H 2.407917 -0.492058 -1.171169
  H 5.160471 0.052263 0.182518
  H 5.251118 -2.682913 -4.337284
  H 5.251652 -1.093227 -4.974087
  H 2.976063 -0.648701 -3.939957
  H 2.975374 -2.289532 -3.283170
 22
 151.096823
  C 0.782981 0.285332 0.763263
  C 2.233931 0.322308 0.855238
  C 2.896613 0.807025 2.058871
  H 2.186579 1.112811 2.820113
  C 2.980630 -0.127779 -0.264095
  C 4.301928 -0.167869 -0.365757
  C 5.554668 -1.235404 -3.025937
  C 4.900109 -1.704068 -4.196789
  C 3.377493 -1.689266 -4.161249
  H 2.974544 -2.063816 -5.097562
  H 6.641710 -1.226586 -3.004142
  H 0.299552 0.648007 1.664752
  H 0.446410 -0.732977 0.556050
  H 0.446314 0.876600 -0.091237
  H 3.548412 1.648672 1.819247
  H 3.549569 0.034690 2.468451
  H 2.389764 -0.467055 -1.108125
  H 5.146736 0.074157 0.238121
  H 5.278552 -2.714920 -4.422992
  H 5.279082 -1.129087 -5.058182
  H 3.014998 -0.677343 -4.009718
  H 3.014301 -2.316972 -3.353503
 22
 152.487959
  C 0.754664 0.308070 0.820294
  C 2.208991 0.346613 0.916077
  C 2.869901 0.834185 2.125634
  H 2.158461 1.140353 2.887464
  C 2.964023 -0.106083 -0.208955
  C 4.281072 -0.146379 -0.311105
  C 5.589205 -1.269385 -3.110298
  C 4.936722 -1.742984 -4.294049
  C 3.410784 -1.729647 -4.262534
  H 3.008502 -2.104773 -5.200766
  H 6.681034 -1.268981 -3.109244
  H 0.265531 0.670398 1.720165
  H 0.420477 -0.710495 0.609830
  H 0.420366 0.896772 -0.037066
  H 3.523104 1.674905 1.886771
  H 3.524495 0.063435 2.535450
  H 2.375482 -0.447059 -1.057030
  H 5.125848 0.096025 0.293983
  H 5.316837 -2.754078 -4.519572
  H 5.317521 -1.167232 -5.154949
  H 3.047315 -0.717641 -4.110617
  H 3.046478 -2.357298 -3.454712
 22
 153.414501
  C 0.740915 0.326592 0.866604
  C 2.186116 0.366737 0.966209
  C 2.839716 0.851918 2.169391
  H 2.128132 1.157250 2.929263
  C 2.942125 -0.083407 -0.152319
  C 4.262295 -0.124076 -0.255349
  C 5.615936 -1.304356 -3.197375
  C 4.967868 -1.777751 -4.380834
  C 3.444540 -1.762460 -4.344808
  H 3.038643 -2.136495 -5.280459
  H 6.708931 -1.313328 -3.219402
  H 0.247586 0.687736 1.763355
  H 0.409916 -0.692390 0.652719
  H 0.409723 0.913037 0.006400
  H 3.494047 1.691849 1.930646
  H 3.495692 0.082013 2.578753
  H 2.356320 -0.424569 -1.000910
  H 5.110418 0.116611 0.345861
  H 5.346404 -2.788059 -4.606153
  H 5.347248 -1.202483 -5.241029
  H 3.083623 -0.750238 -4.190871
  H 3.082581 -2.388865 -3.535361
