 9
 0.000000
  H 5.751440 -1.129400 -2.029134
  C 6.827525 -1.132435 -2.035095
  C 7.534010 -1.637713 -3.027046
  C 9.024341 -1.661847 -3.074420
  H 7.317546 -0.696460 -1.179206
  H 7.034224 -2.073753 -3.883051
  H 9.456059 -1.208886 -2.185181
  H 9.381212 -1.119756 -3.949973
  H 9.381213 -2.688800 -3.150733
 9
 7.467037
  H 5.693387 -1.119243 -2.009192
  C 6.769325 -1.127285 -2.024983
  C 7.458976 -1.634656 -3.021045
  C 9.107981 -1.667817 -3.086138
  H 7.268843 -0.693387 -1.173172
  H 6.954564 -2.068272 -3.872291
  H 9.542618 -1.216664 -2.200450
  H 9.455108 -1.127390 -3.963090
  H 9.455107 -2.694920 -3.164618
 9
 21.674553
  H 5.674775 -1.101724 -1.974797
  C 6.753729 -1.121713 -2.014052
  C 7.387793 -1.641460 -3.034402
  C 9.196530 -1.671799 -3.093962
  H 7.267136 -0.692569 -1.171561
  H 6.943629 -2.084080 -3.903328
  H 9.544622 -1.208309 -2.184056
  H 9.472196 -1.117145 -3.976479
  H 9.472200 -2.711784 -3.164205
 9
 39.700940
  H 5.619838 -1.089842 -1.951482
  C 6.699959 -1.116251 -2.003320
  C 7.314993 -1.639148 -3.029853
  C 9.282501 -1.677424 -3.104997
  H 7.225442 -0.689166 -1.164878
  H 6.873232 -2.082879 -3.900964
  H 9.621217 -1.214016 -2.195248
  H 9.541109 -1.120622 -3.990790
  H 9.541105 -2.721298 -3.175428
 9
 57.647992
  H 5.576656 -1.079830 -1.930891
  C 6.659586 -1.120704 -1.984774
  C 7.235580 -1.635386 -3.034757
  C 9.361978 -1.679662 -3.106743
  H 7.193144 -0.689047 -1.157981
  H 6.800417 -2.073714 -3.907093
  H 9.702190 -1.206924 -2.206500
  H 9.600868 -1.139839 -4.007751
  H 9.604165 -2.726027 -3.181430
 9
 74.381886
  H 5.521365 -1.067992 -1.904367
  C 6.604959 -1.113372 -1.977318
  C 7.166890 -1.631288 -3.029819
  C 9.451817 -1.686443 -3.121177
  H 7.152225 -0.689853 -1.154540
  H 6.734259 -2.070654 -3.902106
  H 9.779152 -1.211837 -2.218499
  H 9.673581 -1.143708 -4.023010
  H 9.675234 -2.735881 -3.190658
 9
 88.727973
  H 5.468796 -1.055417 -1.878057
  C 6.551939 -1.107136 -1.968820
  C 7.099327 -1.628064 -3.024790
  C 9.542714 -1.693415 -3.135357
  H 7.112095 -0.689582 -1.151251
  H 6.670075 -2.068206 -3.898113
  H 9.856363 -1.216749 -2.229096
  H 9.746042 -1.147286 -4.038426
  H 9.746857 -2.746155 -3.200957
 9
 100.610288
  H 5.417514 -1.042747 -1.852140
  C 6.500071 -1.101502 -1.959976
  C 7.033125 -1.625101 -3.019514
  C 9.634888 -1.700557 -3.149538
  H 7.072652 -0.688580 -1.147731
  H 6.607588 -2.065694 -3.893897
  H 9.934700 -1.222243 -2.240162
  H 9.819394 -1.151477 -4.053316
  H 9.819792 -2.755827 -3.212089
 9
 110.116768
  H 5.367587 -1.030069 -1.826409
  C 6.449055 -1.096077 -1.950726
  C 6.968404 -1.622098 -3.013811
  C 9.728444 -1.707887 -3.163853
  H 7.033306 -0.687217 -1.144157
  H 6.546258 -2.063077 -3.889398
  H 10.015095 -1.227971 -2.251313
  H 9.894496 -1.155974 -4.068543
  H 9.894677 -2.765673 -3.223975
 9
 117.495535
  H 5.318858 -1.017593 -1.801116
  C 6.398885 -1.090772 -1.941265
  C 6.905357 -1.618975 -3.007720
  C 9.823564 -1.715449 -3.178451
  H 6.994303 -0.685497 -1.140246
  H 6.486199 -2.060156 -3.884228
  H 10.097889 -1.234283 -2.263371
  H 9.971855 -1.161182 -4.083693
  H 9.971920 -2.775078 -3.236560
 9
 123.060048
  H 5.271555 -1.005323 -1.776215
  C 6.349786 -1.085454 -1.931498
  C 6.844228 -1.615659 -3.001184
  C 9.920478 -1.723259 -3.193457
  H 6.955729 -0.683553 -1.136102
  H 6.427422 -2.056981 -3.878495
  H 10.183664 -1.240902 -2.275958
  H 10.051943 -1.166869 -4.099263
  H 10.051978 -2.784653 -3.249899
 9
 127.141866
  H 5.226038 -0.993381 -1.751927
  C 6.302176 -1.080129 -1.921536
  C 6.785387 -1.612164 -2.994259
  C 10.019549 -1.731380 -3.208962
  H 6.918154 -0.681369 -1.131572
  H 6.370356 -2.053499 -3.872078
  H 10.272711 -1.248117 -2.289599
  H 10.135202 -1.173251 -4.115055
  H 10.135230 -2.793993 -3.263967
 9
 130.053165
  H 5.182884 -0.981759 -1.728223
  C 6.256733 -1.074760 -1.911344
  C 6.729417 -1.608498 -2.986970
  C 10.121345 -1.739861 -3.225131
  H 6.882192 -0.679024 -1.126772
  H 6.315523 -2.049777 -3.865113
  H 10.365730 -1.255743 -2.304029
  H 10.222230 -1.180166 -4.131513
  H 10.222294 -2.803645 -3.278906
 9
 132.044712
  H 5.143163 -0.970525 -1.705213
  C 6.214569 -1.069404 -1.901059
  C 6.677294 -1.604721 -2.979429
  C 10.226825 -1.748812 -3.242162
  H 6.849099 -0.676556 -1.121716
  H 6.263946 -2.045851 -3.857656
  H 10.463586 -1.264058 -2.319758
  H 10.313952 -1.187846 -4.148598
  H 10.314075 -2.813399 -3.294850
