 25
 0.000000
  C 0.999723 0.155605 0.438986
  C 2.471122 0.142470 0.405745
  C 3.248864 0.607567 1.562545
  H 2.641987 0.942095 2.395345
  C 3.069966 -0.326184 -0.760832
  C 4.448673 -0.418860 -0.992386
  C 5.094774 -0.871029 -2.119560
  C 4.609659 -1.387852 -3.408069
  C 3.123568 -1.511075 -3.716314
  C 2.915956 -2.074314 -5.120602
  H 6.177107 -0.859536 -2.091048
  H 0.602762 0.532479 1.376806
  H 0.612197 -0.851203 0.276481
  H 0.611794 0.769783 -0.374989
  H 3.905489 1.424649 1.256502
  H 3.905889 -0.193735 1.906983
  H 2.398306 -0.640507 -1.542735
  H 5.094761 -0.095508 -0.187358
  H 5.076682 -2.373940 -3.536166
  H 5.077288 -0.764040 -4.182113
  H 2.645266 -0.531708 -3.666462
  H 2.644805 -2.184272 -3.003593
  H 3.360421 -1.425557 -5.871927
  H 1.854337 -2.161229 -5.338036
  H 3.360053 -3.062648 -5.215264
 25
 -0.247172
  C 0.995556 0.271827 0.446385
  C 2.460221 0.146941 0.388218
  C 3.261211 0.461931 1.582166
  H 2.636302 0.723387 2.429886
  C 3.035577 -0.261537 -0.811299
  C 4.417017 -0.345029 -1.032085
  C 5.073328 -0.766627 -2.164341
  C 4.607373 -1.326094 -3.436394
  C 3.127241 -1.525909 -3.728461
  C 2.936031 -2.168948 -5.099874
  H 6.154322 -0.699253 -2.121047
  H 0.644437 0.618831 1.412446
  H 0.527081 -0.688182 0.220613
  H 0.644128 0.952521 -0.331004
  H 3.935668 1.295014 1.377276
  H 3.895582 -0.381569 1.856062
  H 2.360447 -0.502620 -1.615338
  H 5.053723 -0.021207 -0.219262
  H 5.125325 -2.289320 -3.553707
  H 5.050356 -0.709167 -4.231282
  H 2.611105 -0.564641 -3.724960
  H 2.681075 -2.176797 -2.974945
  H 3.350930 -1.542484 -5.886328
  H 1.878571 -2.311410 -5.307632
  H 3.420813 -3.141543 -5.146506
 25
 0.116602
  C 0.992808 0.374608 0.471092
  C 2.441068 0.144759 0.364715
  C 3.265423 0.305245 1.577789
  H 2.655517 0.511356 2.451801
  C 2.999031 -0.197732 -0.860768
  C 4.383362 -0.290078 -1.064388
  C 5.061759 -0.671588 -2.196981
  C 4.616820 -1.278514 -3.454480
  C 3.143951 -1.553742 -3.720602
  C 2.965610 -2.264704 -5.059589
  H 6.137655 -0.547149 -2.155758
  H 0.691405 0.684719 1.465388
  H 0.446776 -0.531664 0.199692
  H 0.675056 1.124729 -0.255568
  H 3.968881 1.130079 1.454185
  H 3.860352 -0.587758 1.768078
  H 2.325384 -0.350424 -1.687365
  H 4.998981 0.017608 -0.226487
  H 5.177848 -2.219696 -3.551916
  H 5.022935 -0.662599 -4.269205
  H 2.587674 -0.615975 -3.753477
  H 2.732568 -2.185140 -2.931300
  H 3.344186 -1.656275 -5.877907
  H 1.913184 -2.461818 -5.247228
  H 3.492000 -3.216512 -5.070029
 25
 1.562419
  C 0.994607 0.474569 0.517402
  C 2.416992 0.164276 0.315116
  C 3.261871 0.105097 1.530393
  H 2.666634 0.232749 2.430081
  C 2.957700 -0.060642 -0.940829
  C 4.341986 -0.208659 -1.115517
  C 5.052032 -0.553654 -2.238753
  C 4.635906 -1.233394 -3.468581
  C 3.173331 -1.594177 -3.687363
  C 3.002593 -2.381312 -4.983631
  H 6.116934 -0.356318 -2.200708
  H 0.756782 0.686688 1.552993
  H 0.374626 -0.357109 0.173808
  H 0.699057 1.320333 -0.106953
  H 4.009077 0.899293 1.522899
  H 3.787271 -0.846131 1.602409
  H 2.297861 -0.055058 -1.792560
  H 4.927747 0.021247 -0.226733
  H 5.243210 -2.148361 -3.527790
  H 4.996406 -0.634618 -4.316238
  H 2.569600 -0.689067 -3.752367
  H 2.809680 -2.199415 -2.854922
  H 3.334500 -1.798629 -5.840074
  H 1.957550 -2.638129 -5.137107
  H 3.575035 -3.305909 -4.957593
 25
 5.720805
  C 0.999419 0.561576 0.529163
  C 2.398997 0.215549 0.233301
  C 3.242361 -0.108915 1.415254
  H 2.638825 -0.093599 2.322644
  C 2.931759 0.168296 -1.038833
  C 4.303164 -0.065259 -1.208500
  C 5.050424 -0.390518 -2.310471
  C 4.656418 -1.167581 -3.494831
  C 3.207229 -1.632329 -3.612417
  C 3.017355 -2.489219 -4.863364
  H 6.096169 -0.106959 -2.293371
  H 0.783637 0.554061 1.591820
  H 0.317044 -0.126068 0.024482
  H 0.762027 1.544349 0.111363
  H 4.018577 0.637753 1.572565
  H 3.675777 -1.104093 1.342160
  H 2.304273 0.387412 -1.886997
  H 4.843194 0.021556 -0.253400
  H 5.314730 -2.044923 -3.518235
  H 4.938940 -0.590145 -4.386650
  H 2.537086 -0.776293 -3.670072
  H 2.935217 -2.221631 -2.734611
  H 3.260528 -1.930251 -5.763793
  H 1.985144 -2.821379 -4.944812
  H 3.655474 -3.370792 -4.827779
 25
 11.663054
  C 1.003437 0.589278 0.573004
  C 2.398208 0.225097 0.206263
  C 3.260819 -0.309333 1.300357
  H 2.673761 -0.362149 2.221105
  C 2.931277 0.340461 -1.068463
  C 4.277063 0.031466 -1.278771
  C 5.041416 -0.272333 -2.373416
  C 4.669503 -1.125262 -3.511312
  C 3.241758 -1.666640 -3.521820
  C 3.023400 -2.555601 -4.743503
  H 6.061754 0.094510 -2.409103
  H 0.808120 0.437984 1.640851
  H 0.272094 0.015928 -0.011515
  H 0.800957 1.632764 0.303934
  H 4.063464 0.377829 1.568812
  H 3.595093 -1.322615 1.101556
  H 2.325896 0.728523 -1.874982
  H 4.806459 -0.043958 -0.315333
  H 5.389656 -1.956366 -3.529468
  H 4.858321 -0.567898 -4.437015
  H 2.529693 -0.843464 -3.546789
  H 3.050693 -2.248190 -2.616798
  H 3.178552 -2.003490 -5.670150
  H 2.008602 -2.947278 -4.754113
  H 3.718459 -3.392228 -4.724823
 25
 21.152956
  C 1.002001 0.578647 0.672861
  C 2.353583 0.271654 0.162492
  C 3.284659 -0.357527 1.157721
  H 2.737662 -0.457310 2.110645
  C 2.836595 0.516433 -1.101545
  C 4.162852 0.136148 -1.355536
  C 4.994778 -0.198563 -2.385864
  C 4.709508 -1.129091 -3.493237
  C 3.287615 -1.685450 -3.534169
  C 3.107181 -2.631706 -4.715804
  H 5.992716 0.217621 -2.384300
  H 0.877178 0.298460 1.712250
  H 0.240568 0.069081 0.081202
  H 0.790773 1.649174 0.566384
  H 4.074726 0.312924 1.486194
  H 3.554928 -1.383480 0.926399
  H 2.236744 0.995750 -1.857048
  H 4.599340 -0.063969 -0.330784
  H 5.429598 -1.947308 -3.429874
  H 4.931351 -0.607428 -4.435478
  H 2.575201 -0.866943 -3.619513
  H 3.072720 -2.223199 -2.607500
  H 3.285546 -2.115840 -5.656643
  H 2.095764 -3.028798 -4.735233
  H 3.797350 -3.470787 -4.651388
 25
 41.753693
  C 1.044026 0.593467 0.829661
  C 2.315779 0.332256 0.121938
  C 3.329085 -0.485390 0.882162
  H 2.878440 -0.723400 1.872053
  C 2.678882 0.683117 -1.145630
  C 3.979255 0.333397 -1.519190
  C 4.900404 -0.065822 -2.410327
  C 4.715568 -1.091661 -3.472197
  C 3.310284 -1.688629 -3.519919
  C 3.201192 -2.736034 -4.623179
  H 5.903156 0.324483 -2.340457
  H 1.032418 0.181616 1.828500
  H 0.198873 0.182790 0.275947
  H 0.858985 1.672255 0.888128
  H 4.143406 0.093501 1.328791
  H 3.529040 -1.471505 0.465463
  H 2.039622 1.262862 -1.804857
  H 4.418792 0.111330 -0.345144
  H 5.430635 -1.890309 -3.259421
  H 4.989832 -0.656042 -4.435543
  H 2.582924 -0.898048 -3.704448
  H 3.073687 -2.150733 -2.557082
  H 3.405025 -2.297697 -5.601218
  H 2.201587 -3.164580 -4.645883
  H 3.909181 -3.544926 -4.457622
 25
 60.021360
  C 1.052897 0.648610 0.914947
  C 2.291104 0.280508 0.183866
  C 3.408781 -0.511967 0.834589
  H 3.072737 -0.772005 1.857141
  C 2.576864 0.691227 -1.109627
  C 3.783521 0.377844 -1.643038
  C 4.751053 0.034760 -2.448160
  C 4.694243 -1.063018 -3.476841
  C 3.321850 -1.722004 -3.600260
  C 3.321687 -2.797600 -4.680200
  H 5.722342 0.518642 -2.379108
  H 1.023639 0.223773 1.913020
  H 0.162969 0.315450 0.378556
  H 0.967641 1.731584 0.999054
  H 4.251571 0.081549 1.293410
  H 3.547849 -1.523308 0.428007
  H 1.892706 1.314381 -1.668384
  H 4.246187 -0.102887 -0.050710
  H 5.450974 -1.816558 -3.232446
  H 4.982100 -0.626809 -4.439788
  H 2.575598 -0.963032 -3.845156
  H 3.039946 -2.172731 -2.647895
  H 3.577606 -2.372971 -5.648617
  H 2.340110 -3.258042 -4.762791
  H 4.045006 -3.577137 -4.450096
 25
 59.740384
  C 1.093450 0.712537 0.946505
  C 2.301172 0.295303 0.188502
  C 3.361530 -0.598787 0.804886
  H 2.966704 -0.909084 1.791516
  C 2.560968 0.754510 -1.097706
  C 3.691833 0.450192 -1.763753
  C 4.679542 0.126279 -2.534135
  C 4.686531 -1.013692 -3.521577
  C 3.352732 -1.748356 -3.613145
  C 3.405885 -2.866677 -4.646647
  H 5.618483 0.671112 -2.490997
  H 1.048892 0.260800 1.932687
  H 0.180030 0.444921 0.412215
  H 1.068158 1.797369 1.065746
  H 4.214698 -0.147368 1.438741
  H 3.460508 -1.577666 0.307565
  H 1.852293 1.413983 -1.580376
  H 4.239479 -0.139262 0.178225
  H 5.480810 -1.714686 -3.249393
  H 4.946852 -0.603542 -4.501507
  H 2.568200 -1.039500 -3.885501
  H 3.096269 -2.172305 -2.641333
  H 3.637823 -2.469990 -5.633257
  H 2.449234 -3.380274 -4.706092
  H 4.169652 -3.596961 -4.387137
 25
 61.047015
  C 1.141776 0.776174 0.964860
  C 2.330745 0.325284 0.193188
  C 3.328495 -0.648029 0.802312
  H 2.822575 -1.040022 1.701331
  C 2.568141 0.783128 -1.094575
  C 3.646216 0.477903 -1.828217
  C 4.634801 0.170256 -2.602123
  C 4.669962 -0.992398 -3.563672
  C 3.368868 -1.788239 -3.601996
  C 3.444455 -2.927944 -4.610540
  H 5.546552 0.761865 -2.599076
  H 1.100640 0.338471 1.956958
  H 0.216550 0.519313 0.445536
  H 1.137892 1.862115 1.071816
  H 4.177044 -0.384826 1.568707
  H 3.491520 -1.528016 0.167150
  H 1.837804 1.442635 -1.543808
  H 4.241271 -0.010294 0.454235
  H 5.501056 -1.649972 -3.292443
  H 4.887570 -0.598868 -4.560697
  H 2.546072 -1.121411 -3.867850
  H 3.158545 -2.199531 -2.613742
  H 3.629921 -2.544986 -5.612351
  H 2.511204 -3.486067 -4.629974
  H 4.248594 -3.615799 -4.356767
 25
 63.668453
  C 1.229748 0.935394 0.990046
  C 2.358863 0.400035 0.188018
  C 3.279603 -0.721285 0.805758
  H 2.647393 -1.081818 1.625512
  C 2.597996 0.829441 -1.112398
  C 3.648164 0.476796 -1.870393
  C 4.638559 0.145662 -2.628342
  C 4.677676 -1.039574 -3.559542
  C 3.377255 -1.836849 -3.582635
  C 3.458083 -3.001826 -4.560753
  H 5.549059 0.738394 -2.635594
  H 1.189388 0.515883 1.989753
  H 0.278614 0.725125 0.496909
  H 1.294230 2.021241 1.080722
  H 4.205505 -0.732042 1.491448
  H 3.406636 -1.510858 0.060756
  H 1.875396 1.505492 -1.552773
  H 3.978547 0.160065 0.597107
  H 5.507777 -1.688742 -3.266618
  H 4.899784 -0.672480 -4.565557
  H 2.555172 -1.178098 -3.869018
  H 3.163864 -2.223041 -2.585088
  H 3.647000 -2.644756 -5.571053
  H 2.525838 -3.561198 -4.569255
  H 4.261807 -3.681744 -4.286095
 25
 60.207866
  C 1.323292 0.988012 1.052704
  C 2.403144 0.428917 0.203435
  C 3.273120 -0.815032 0.814025
  H 2.591267 -1.163391 1.595284
  C 2.592495 0.856954 -1.121714
  C 3.609460 0.485815 -1.904432
  C 4.619969 0.143971 -2.625807
  C 4.689972 -1.049258 -3.541227
  C 3.392431 -1.850577 -3.593433
  C 3.507377 -3.026991 -4.554800
  H 5.525632 0.742351 -2.612535
  H 1.313996 0.566582 2.052011
  H 0.353390 0.795369 0.592849
  H 1.413476 2.071967 1.143060
  H 4.200519 -0.815914 1.436313
  H 3.369933 -1.573570 0.039158
  H 1.859574 1.540294 -1.532169
  H 3.685472 0.284522 0.524916
  H 5.512577 -1.691055 -3.214401
  H 4.941611 -0.693885 -4.544113
  H 2.577178 -1.198440 -3.912975
  H 3.150175 -2.225605 -2.597851
  H 3.725690 -2.681346 -5.563289
  H 2.577613 -3.589889 -4.584718
  H 4.304481 -3.700878 -4.247506
 25
 47.279621
  C 1.425527 1.033175 1.131301
  C 2.475463 0.441720 0.252806
  C 3.103785 -0.955163 0.745644
  H 2.364280 -1.341188 1.450607
  C 2.616512 0.873955 -1.110552
  C 3.597006 0.496480 -1.917146
  C 4.589552 0.165779 -2.664373
  C 4.681625 -1.041631 -3.558355
  C 3.416397 -1.895579 -3.554233
  C 3.553065 -3.082541 -4.499333
  H 5.468233 0.804055 -2.693459
  H 1.435682 0.604722 2.127830
  H 0.438043 0.871703 0.696604
  H 1.552528 2.111741 1.219503
  H 4.025811 -0.996743 1.329494
  H 3.180197 -1.626488 -0.104593
  H 1.876673 1.566730 -1.491592
  H 3.571043 0.478339 0.577014
  H 5.538912 -1.641456 -3.241776
  H 4.889685 -0.697363 -4.574941
  H 2.564611 -1.284547 -3.858922
  H 3.222203 -2.262459 -2.545051
  H 3.723179 -2.746090 -5.519846
  H 2.648497 -3.685311 -4.489021
  H 4.387860 -3.715826 -4.206934
 25
 22.987697
  C 1.714702 1.116996 1.264725
  C 2.694897 0.360637 0.386590
  C 2.424561 -1.155983 0.380455
  H 1.481423 -1.364219 0.878268
  C 2.821675 0.960705 -0.980978
  C 3.635326 0.591215 -1.930652
  C 4.481574 0.335869 -2.894082
  C 4.600113 -0.891594 -3.708298
  C 3.659705 -2.019135 -3.306727
  C 3.783539 -3.195409 -4.265328
  H 5.188800 1.122071 -3.152156
  H 1.712961 0.692975 2.264969
  H 0.703048 1.039031 0.872959
  H 1.978081 2.169842 1.337433
  H 3.200668 -1.699352 0.909109
  H 2.364577 -1.547306 -0.628894
  H 2.163930 1.803299 -1.179053
  H 3.706011 0.495375 0.804587
  H 5.634589 -1.248616 -3.675575
  H 4.433836 -0.595651 -4.751060
  H 2.632080 -1.650702 -3.311654
  H 3.895617 -2.356116 -2.297448
  H 3.538468 -2.897538 -5.282114
  H 3.103176 -3.990967 -3.974847
  H 4.793011 -3.599412 -4.259549
