 10
 0.000000
  H 1.367712 0.138471 0.394485
  C 2.444714 0.112510 0.332769
  H 3.004847 0.456471 1.189482
  C 3.070530 -0.343406 -0.801344
  C 4.478415 -0.386199 -0.912159
  C 5.099249 -0.842617 -2.048772
  H 4.524676 -1.182449 -2.899461
  H 6.175461 -0.875397 -2.125651
  H 2.473814 -0.681408 -1.640389
  H 5.070923 -0.047474 -0.071026
 10
 -0.958249
  H 1.373263 0.244318 0.356173
  C 2.443714 0.102872 0.337680
  H 2.986711 0.370941 1.232244
  C 3.065711 -0.380738 -0.770139
  C 4.475217 -0.354721 -0.943556
  C 5.096099 -0.834729 -2.053552
  H 4.554315 -1.065925 -2.959788
  H 6.162671 -1.005337 -2.066207
  H 2.472759 -0.789695 -1.581159
  H 5.065987 0.061668 -0.133353
 10
 -0.772164
  H 1.384342 0.340227 0.321911
  C 2.435069 0.086499 0.346004
  H 2.914155 0.136261 1.315104
  C 3.080735 -0.304332 -0.776228
  C 4.490427 -0.297053 -0.968997
  C 5.089953 -0.868865 -2.041295
  H 4.535010 -1.216673 -2.899850
  H 6.160248 -1.009536 -2.067335
  H 2.488796 -0.714047 -1.593602
  H 5.088957 0.198088 -0.212824
 10
 0.984566
  H 1.404295 0.415101 0.317615
  C 2.424098 0.056196 0.350284
  H 2.818287 -0.131428 1.342015
  C 3.104851 -0.201023 -0.787534
  C 4.511700 -0.227871 -0.990687
  C 5.080667 -0.903635 -2.019312
  H 4.496539 -1.387279 -2.789002
  H 6.153120 -1.012240 -2.082909
  H 2.504678 -0.582169 -1.616410
  H 5.126691 0.329427 -0.293317
 10
 4.380584
  H 1.416669 0.473282 0.299041
  C 2.412016 0.047980 0.343596
  H 2.730165 -0.262121 1.327220
  C 3.135236 -0.118991 -0.785604
  C 4.532422 -0.198915 -0.997862
  C 5.072665 -0.913672 -2.013888
  H 4.465811 -1.426352 -2.745955
  H 6.137337 -1.033324 -2.095208
  H 2.507176 -0.577455 -1.560309
  H 5.164868 0.371202 -0.329554
 10
 10.429031
  H 1.478751 0.632788 0.224419
  C 2.383007 0.050781 0.344000
  H 2.530475 -0.362156 1.333994
  C 3.187651 -0.149557 -0.729736
  C 4.559745 -0.235903 -0.979945
  C 5.081018 -0.898221 -2.045002
  H 4.466519 -1.473475 -2.717630
  H 6.140796 -0.924399 -2.209610
  H 2.483686 -0.632673 -1.422339
  H 5.201907 0.357965 -0.344417
 10
 18.431237
  H 1.450113 0.613170 0.254924
  C 2.344937 0.003087 0.308344
  H 2.467641 -0.543515 1.243745
  C 3.238129 -0.030373 -0.708188
  C 4.582590 -0.145040 -1.036254
  C 5.082599 -0.936856 -2.018987
  H 4.452836 -1.567200 -2.615486
  H 6.141020 -0.997983 -2.194272
  H 2.423652 -0.488529 -1.328266
  H 5.260173 0.456295 -0.434562
 10
 24.964435
  H 1.466089 0.689098 0.137057
  C 2.301753 0.003843 0.257191
  H 2.289392 -0.581614 1.177625
  C 3.341779 -0.041463 -0.599876
  C 4.629193 -0.170824 -1.006916
  C 5.089740 -0.935381 -2.043660
  H 4.440195 -1.566445 -2.624268
  H 6.135293 -0.954076 -2.284403
  H 2.349117 -0.557936 -1.050917
  H 5.326570 0.464346 -0.469193
 10
 22.042807
  H 1.507135 0.748896 0.054610
  C 2.278636 -0.003298 0.208942
  H 2.205497 -0.549765 1.148004
  C 3.396904 -0.082576 -0.539383
  C 4.650533 -0.211581 -0.982380
  C 5.103533 -0.929532 -2.062980
  H 4.455219 -1.567556 -2.638482
  H 6.134309 -0.887657 -2.350085
  H 2.210632 -0.639295 -0.862207
  H 5.345051 0.442246 -0.461311
 10
 17.667946
  H 1.551566 0.779999 0.064934
  C 2.264054 -0.033350 0.182958
  H 2.172507 -0.587738 1.116449
  C 3.427278 -0.096476 -0.509198
  C 4.648820 -0.193410 -1.011983
  C 5.120275 -0.932597 -2.070432
  H 4.475588 -1.568580 -2.644463
  H 6.160671 -0.907075 -2.333975
  H 2.017932 -0.655445 -0.777711
  H 5.349128 0.456653 -0.479416
 10
 13.149407
  H 1.652517 0.850070 0.109429
  C 2.243721 -0.069449 0.133532
  H 2.175908 -0.608111 1.078988
  C 3.444113 -0.104825 -0.512936
  C 4.647140 -0.207731 -1.027022
  C 5.161173 -0.932717 -2.077086
  H 4.537711 -1.582743 -2.662075
  H 6.204549 -0.879700 -2.319180
  H 1.789948 -0.653521 -0.709248
  H 5.331038 0.450707 -0.477239
 10
 11.058897
  H 1.799514 0.922533 0.072496
  C 2.214969 -0.091515 0.096765
  H 2.160559 -0.529504 1.098667
  C 3.438954 -0.210539 -0.514519
  C 4.631346 -0.262082 -1.051521
  C 5.216305 -0.919169 -2.101560
  H 4.642296 -1.586909 -2.714503
  H 6.253011 -0.776132 -2.330935
  H 1.556202 -0.695648 -0.556179
  H 5.274663 0.410947 -0.461549
 10
 10.944686
  H 1.811246 0.928540 0.059357
  C 2.213958 -0.089975 0.093591
  H 2.180871 -0.507833 1.105278
  C 3.427397 -0.227588 -0.531847
  C 4.621017 -0.274732 -1.057035
  C 5.227170 -0.916483 -2.108969
  H 4.665029 -1.580647 -2.739897
  H 6.266571 -0.766300 -2.320973
  H 1.523996 -0.698046 -0.517564
  H 5.250563 0.395044 -0.444779
