 14
 0.000000
  H 1.417402 0.132134 0.376710
  C 2.498342 0.134552 0.384887
  C 3.177668 0.616192 1.584908
  H 2.480459 0.926499 2.355746
  C 3.128090 -0.324268 -0.756084
  C 4.516161 -0.389889 -0.918802
  C 5.139945 -0.849088 -2.063052
  H 4.588068 -1.197626 -2.930208
  O 6.417351 -0.916568 -2.233835
  H 3.832412 1.456190 1.341346
  H 3.830993 -0.159800 1.990629
  H 2.497769 -0.650930 -1.570158
  H 5.132991 -0.058496 -0.092815
  H 6.957093 -0.609699 -1.474216
 14
 0.310958
  H 1.423680 0.270104 0.308459
  C 2.501184 0.194526 0.356932
  C 3.151360 0.550929 1.615785
  H 2.431976 0.829514 2.378425
  C 3.154096 -0.271571 -0.764694
  C 4.545404 -0.297492 -0.924785
  C 5.137029 -0.922081 -2.008598
  H 4.530151 -1.444070 -2.741392
  O 6.401522 -0.990138 -2.247522
  H 3.843846 1.382671 1.462092
  H 3.771828 -0.268913 1.981320
  H 2.556244 -0.597830 -1.604739
  H 5.171554 0.211524 -0.204389
  H 6.978040 -0.532705 -1.598998
 14
 1.878415
  H 1.423043 0.335138 0.293593
  C 2.498317 0.227927 0.343218
  C 3.151261 0.500739 1.621659
  H 2.451683 0.865373 2.366016
  C 3.147003 -0.227502 -0.782768
  C 4.540739 -0.235410 -0.956476
  C 5.145728 -0.982728 -1.950184
  H 4.557893 -1.655716 -2.566649
  O 6.407523 -1.018299 -2.211443
  H 3.958081 1.225492 1.491756
  H 3.643522 -0.397040 2.002867
  H 2.545004 -0.484249 -1.644350
  H 5.155924 0.388948 -0.320887
  H 6.966220 -0.423681 -1.667253
 14
 4.736295
  H 1.431345 0.440901 0.278139
  C 2.498219 0.275735 0.326256
  C 3.156931 0.439876 1.621207
  H 2.486709 0.843322 2.371633
  C 3.135329 -0.174650 -0.803963
  C 4.530803 -0.163765 -1.001566
  C 5.152125 -1.041082 -1.867548
  H 4.589101 -1.839203 -2.339147
  O 6.413581 -1.074401 -2.142766
  H 4.034957 1.081425 1.521120
  H 3.550128 -0.516716 1.977398
  H 2.536064 -0.361381 -1.686442
  H 5.129567 0.574856 -0.485426
  H 6.950303 -0.361845 -1.739235
 14
 9.092406
  H 1.443299 0.555474 0.258684
  C 2.501037 0.322997 0.320300
  C 3.146934 0.384911 1.632917
  H 2.491015 0.798508 2.391084
  C 3.141596 -0.124381 -0.805956
  C 4.536657 -0.115142 -1.061972
  C 5.161470 -1.096138 -1.788316
  H 4.621492 -1.982857 -2.093993
  O 6.414621 -1.132993 -2.098214
  H 4.061789 0.973137 1.566469
  H 3.471212 -0.608817 1.953081
  H 2.558414 -0.211240 -1.721875
  H 5.131235 0.709923 -0.673491
  H 6.931096 -0.345728 -1.837949
 14
 15.012774
  H 1.470909 0.671303 0.249894
  C 2.513172 0.366283 0.324402
  C 3.124559 0.329569 1.660269
  H 2.461272 0.735042 2.418412
  C 3.163241 -0.074077 -0.799210
  C 4.542524 -0.061120 -1.135542
  C 5.174724 -1.141198 -1.710878
  H 4.665208 -2.089847 -1.834811
  O 6.415969 -1.192421 -2.068661
  H 4.057539 0.883817 1.638573
  H 3.391103 -0.688153 1.941711
  H 2.618529 -0.084676 -1.744670
  H 5.121468 0.828481 -0.911686
  H 6.917166 -0.350932 -1.976218
 14
 20.055898
  H 1.531695 0.777478 0.224319
  C 2.545177 0.411467 0.324998
  C 3.085750 0.301672 1.697119
  H 2.397979 0.710003 2.429570
  C 3.196289 -0.048220 -0.757909
  C 4.561268 -0.060878 -1.195276
  C 5.199121 -1.172216 -1.679013
  H 4.711816 -2.141370 -1.679964
  O 6.425050 -1.221016 -2.090759
  H 4.038592 0.836340 1.753504
  H 3.296791 -0.737315 1.952984
  H 2.664656 -0.023244 -1.717021
  H 5.112836 0.873674 -1.117471
  H 6.907143 -0.368793 -2.078606
 14
 25.140681
  H 1.641531 0.829932 0.114335
  C 2.605875 0.418929 0.355181
  C 2.959122 0.370100 1.794148
  H 2.219455 0.879310 2.404178
  C 3.335094 -0.158727 -0.611029
  C 4.659844 -0.135952 -1.138608
  C 5.253326 -1.203005 -1.769298
  H 4.774939 -2.180305 -1.790785
  O 6.400781 -1.182948 -2.371401
  H 3.932104 0.831813 1.941909
  H 3.050243 -0.660419 2.141448
  H 2.807939 -0.131249 -1.577349
  H 5.221395 0.782270 -1.007359
  H 6.843514 -0.309863 -2.401404
 14
 35.460464
  H 1.675491 0.783540 0.082059
  C 2.640234 0.405296 0.394104
  C 2.872379 0.355932 1.868160
  H 2.022655 0.757633 2.408697
  C 3.478207 -0.078957 -0.503222
  C 4.711453 -0.095009 -1.215882
  C 5.273167 -1.229197 -1.761122
  H 4.817280 -2.205492 -1.622702
  O 6.342407 -1.260879 -2.498343
  H 3.764228 0.933810 2.117242
  H 3.045369 -0.665280 2.201238
  H 3.014084 0.037476 -1.536001
  H 5.282281 0.826658 -1.202106
  H 6.787769 -0.401220 -2.623892
 14
 42.326155
  H 1.656445 0.586311 0.093606
  C 2.658957 0.365020 0.433374
  C 2.855923 0.417084 1.918520
  H 1.943899 0.720075 2.416539
  C 3.581967 0.000423 -0.417613
  C 4.702695 -0.077216 -1.284835
  C 5.265203 -1.259596 -1.736022
  H 4.843121 -2.223639 -1.473981
  O 6.306368 -1.342950 -2.516538
  H 3.646072 1.123891 2.162926
  H 3.155546 -0.556615 2.296891
  H 3.191231 0.061739 -1.531711
  H 5.226303 0.855851 -1.476392
  H 6.708077 -0.484634 -2.758157
 14
 44.447036
  H 1.599201 0.532960 0.146377
  C 2.631159 0.374258 0.433931
  C 2.888058 0.352902 1.913061
  H 1.970555 0.533323 2.461514
  C 3.538959 0.171055 -0.470599
  C 4.662159 -0.003878 -1.307319
  C 5.172364 -1.238060 -1.722078
  H 4.662403 -2.166056 -1.509366
  O 6.271428 -1.392899 -2.422617
  H 3.615689 1.115747 2.176805
  H 3.294988 -0.609738 2.212774
  H 3.373008 0.260694 -1.700800
  H 5.285114 0.877392 -1.454767
  H 6.749116 -0.565022 -2.615648
 14
 47.587711
  H 1.616085 0.584852 0.166109
  C 2.641538 0.378692 0.455867
  C 2.875030 0.294742 1.941948
  H 1.953002 0.488868 2.478332
  C 3.556886 0.206122 -0.431498
  C 4.630361 0.047186 -1.337359
  C 5.126687 -1.219939 -1.744119
  H 4.576966 -2.131016 -1.560549
  O 6.247904 -1.399612 -2.406293
  H 3.624229 1.021412 2.245083
  H 3.240400 -0.693784 2.208142
  H 3.590821 0.320049 -1.871922
  H 5.302825 0.897808 -1.440899
  H 6.757271 -0.582750 -2.567664
 14
 44.361294
  H 1.663861 0.424716 0.160035
  C 2.690144 0.314654 0.505823
  C 2.836843 0.332705 2.007370
  H 1.871978 0.482141 2.478925
  C 3.650212 0.188207 -0.330727
  C 4.597690 0.079072 -1.384397
  C 5.109226 -1.211325 -1.781262
  H 4.554196 -2.117147 -1.584834
  O 6.218942 -1.393375 -2.440508
  H 3.508157 1.132872 2.307189
  H 3.259167 -0.608610 2.351190
  H 3.731706 0.285821 -2.070516
  H 5.284802 0.920699 -1.465739
  H 6.732506 -0.581421 -2.616979
 14
 41.869385
  H 1.666579 0.242721 0.183911
  C 2.697231 0.247751 0.542066
  C 2.815650 0.381998 2.039665
  H 1.834779 0.444862 2.494275
  C 3.661971 0.127787 -0.289371
  C 4.544388 0.075250 -1.406791
  C 5.108015 -1.210633 -1.805760
  H 4.591394 -2.134031 -1.579666
  O 6.197021 -1.357226 -2.490349
  H 3.378121 1.276338 2.287268
  H 3.343171 -0.473341 2.450329
  H 3.846120 0.319179 -2.233447
  H 5.267580 0.895564 -1.392030
  H 6.683225 -0.533897 -2.696183
 14
 41.616955
  H 1.730208 0.029780 0.166529
  C 2.741644 0.188859 0.546028
  C 2.795196 0.430434 2.030646
  H 1.809350 0.339241 2.467381
  C 3.734614 0.160126 -0.262139
  C 4.544367 0.096325 -1.433867
  C 5.060450 -1.210202 -1.838253
  H 4.531066 -2.114912 -1.574275
  O 6.133940 -1.400107 -2.532203
  H 3.177416 1.430031 2.228990
  H 3.461314 -0.285984 2.504321
  H 3.836896 0.381126 -2.238901
  H 5.307274 0.883812 -1.433682
  H 6.634304 -0.594349 -2.774925
