19
 0
 C -3.24524884 -1.82277359 0.09477304
 C -1.74986374 -1.63417600 -0.12953908
 C -1.36107158 -2.12892198 -1.52173684
 C -1.21583056 -0.21438355 0.06747030
 C -2.14742610 0.94382048 0.31784397
 O 0.00000000 0.00000000 0.00000000
 H -3.51984191 -2.87909011 -0.00001953
 H -3.83669462 -1.26021112 -0.63574850
 H -3.53771513 -1.49698437 1.09846362
 H -1.23175392 -2.24977188 0.61750897
 H -1.82786260 -1.51890887 -2.30284577
 H -1.67001921 -3.16943868 -1.66794564
 H -0.27673822 -2.08059261 -1.66985383
 H -3.18922109 0.64762894 0.42550996
 H -2.07542605 1.64390559 -0.51878992
 H -1.84450746 1.44195364 1.24344856
 O 2.70000000 0.00000000 0.00000000
 H 3.38474093 0.23913281 0.64258244
 H 3.18881206 -0.44606170 -0.70784698
