 19
 0.000000
  C -3.259581 -1.811178 0.119602
  C -1.790082 -1.638706 -0.120496
  C -1.357146 -2.050428 -1.511064
  C -1.180713 -0.194054 0.067548
  C -2.175846 0.891270 0.285758
  O -0.008244 -0.032898 0.006647
  H -3.492282 -2.874177 0.033768
  H -3.868514 -1.307082 -0.626807
  H -3.552277 -1.510293 1.121193
  H -1.228582 -2.195053 0.641878
  H -1.843085 -1.461009 -2.286732
  H -1.658172 -3.085325 -1.672986
  H -0.281608 -1.962263 -1.630037
  H -3.198139 0.552386 0.371432
  H -2.071498 1.579766 -0.554857
  H -1.869329 1.423759 1.186987
  O 2.749726 -0.040601 -0.006855
  H 3.407655 0.216190 0.645881
  H 3.222049 -0.485178 -0.717586
 19
 -0.396869
  C -3.078134 -1.864006 0.247710
  C -1.664972 -1.555090 -0.146131
  C -1.334413 -1.911614 -1.577088
  C -1.193403 -0.037609 -0.017535
  C -2.291504 0.947129 0.187085
  O -0.044086 0.222923 -0.120582
  H -3.188603 -2.952617 0.249626
  H -3.808987 -1.485364 -0.464702
  H -3.309779 -1.534078 1.258957
  H -0.965927 -2.025172 0.556500
  H -1.974353 -1.392752 -2.289552
  H -1.523871 -2.976755 -1.714863
  H -0.295086 -1.704272 -1.812123
  H -3.282255 0.520734 0.223456
  H -2.215199 1.672740 -0.622011
  H -2.070513 1.476900 1.112880
  O 2.553597 -0.387597 0.081629
  H 3.148416 -0.213900 0.818281
  H 3.081599 -0.777760 -0.620019
 19
 -1.849475
  C -2.881162 -1.870932 0.348733
  C -1.537455 -1.433340 -0.150473
  C -1.275254 -1.769339 -1.597294
  C -1.218716 0.120531 -0.068957
  C -2.401420 0.994535 0.116899
  O -0.103613 0.494557 -0.205734
  H -2.871989 -2.963304 0.400476
  H -3.692250 -1.603536 -0.323162
  H -3.081625 -1.522174 1.358891
  H -0.743477 -1.819681 0.500309
  H -2.016982 -1.331977 -2.263978
  H -1.357626 -2.849327 -1.711733
  H -0.278520 -1.457888 -1.907423
  H -3.353472 0.479105 0.083383
  H -2.346959 1.769370 -0.650713
  H -2.276733 1.489193 1.082683
  O 2.284804 -0.836221 0.092623
  H 2.842527 -0.722760 0.868601
  H 2.855634 -1.132164 -0.623445
 19
 -2.927231
  C -2.780801 -1.853591 0.398966
  C -1.457188 -1.412943 -0.152137
  C -1.265178 -1.739809 -1.620409
  C -1.146198 0.131402 -0.079025
  C -2.332069 1.013724 0.051955
  O -0.027080 0.514305 -0.178773
  H -2.766087 -2.944348 0.455456
  H -3.620656 -1.587961 -0.242543
  H -2.944664 -1.494990 1.414901
  H -0.633787 -1.817625 0.448389
  H -2.043106 -1.299856 -2.245493
  H -1.342555 -2.817990 -1.734959
  H -0.290893 -1.422991 -1.976001
  H -3.279241 0.498613 -0.047155
  H -2.231639 1.802622 -0.691208
  H -2.265855 1.484487 1.036648
  O 1.944414 -1.005390 0.155539
  H 2.481726 -0.823427 0.932190
  H 2.547742 -1.162703 -0.577265
 19
 -3.453183
  C -2.680733 -1.873364 0.480867
  C -1.396975 -1.442407 -0.182011
  C -1.413865 -1.692137 -1.690858
  C -1.039210 0.053527 -0.104808
  C -2.185532 1.009351 -0.069877
  O 0.095031 0.423034 -0.144114
  H -2.734650 -2.959816 0.434726
  H -3.565762 -1.493255 -0.018734
  H -2.704650 -1.600212 1.538295
  H -0.527126 -1.956776 0.242334
  H -2.262595 -1.206612 -2.169841
  H -1.516027 -2.763602 -1.842387
  H -0.495221 -1.362922 -2.164525
  H -3.141033 0.531675 -0.231403
  H -2.001634 1.786272 -0.812222
  H -2.170461 1.484079 0.911652
  O 1.740849 -1.078245 0.367366
  H 2.157595 -0.712161 1.156310
  H 2.393480 -1.055961 -0.341825
 19
 3.590975
  C -2.777572 -1.883993 0.421807
  C -1.410280 -1.478179 -0.070952
  C -1.417408 -1.713925 -1.646688
  C -0.997021 -0.041812 -0.116111
  C -2.065207 1.007255 -0.036814
  O 0.144413 0.314155 -0.250906
  H -2.878567 -2.961373 0.333123
  H -3.578086 -1.421419 -0.146080
  H -2.912972 -1.633760 1.472434
  H -0.596082 -2.139289 0.213518
  H -2.251731 -1.185843 -2.097866
  H -1.551812 -2.782029 -1.771319
  H -0.480852 -1.407909 -2.095630
  H -3.059397 0.579651 -0.085220
  H -1.909237 1.724273 -0.834820
  H -1.924702 1.521158 0.912729
  O 1.747423 -0.972042 0.422297
  H 2.143895 -0.417890 1.106084
  H 2.335913 -1.013708 -0.341428
 19
 15.658171
  C -2.750729 -1.916077 0.423941
  C -1.376448 -1.481929 -0.019332
  C -1.449720 -1.729635 -1.657478
  C -0.990881 -0.071704 -0.141584
  C -2.032467 1.010639 -0.098488
  O 0.146044 0.332684 -0.229901
  H -2.877006 -2.980508 0.303073
  H -3.553583 -1.393877 -0.113851
  H -2.879232 -1.693618 1.489478
  H -0.558093 -2.182022 0.127500
  H -2.283874 -1.166866 -2.016463
  H -1.594649 -2.803864 -1.729505
  H -0.508998 -1.423613 -2.113648
  H -3.038692 0.611314 -0.117002
  H -1.861935 1.704784 -0.909863
  H -1.882429 1.530210 0.838141
  O 1.693935 -0.917725 0.467871
  H 2.068353 -0.442911 1.227871
  H 2.334362 -0.937475 -0.256880
 19
 38.612892
  C -2.781458 -1.933116 0.433263
  C -1.394291 -1.499111 0.110069
  C -1.436044 -1.733915 -1.784294
  C -0.995906 -0.138037 -0.068252
  C -1.990821 0.989553 -0.106762
  O 0.134938 0.277676 -0.287659
  H -2.906017 -2.979879 0.156150
  H -3.559031 -1.337489 -0.043834
  H -2.934097 -1.897405 1.522311
  H -0.603822 -2.234549 0.223352
  H -2.257327 -1.081400 -1.988286
  H -1.655729 -2.776516 -1.685953
  H -0.444899 -1.482270 -2.113492
  H -3.005515 0.617609 -0.084684
  H -1.856785 1.566354 -1.033356
  H -1.817463 1.659144 0.734388
  O 1.709586 -0.817442 0.539415
  H 2.097094 -0.273023 1.232470
  H 2.346514 -0.921122 -0.179643
 19
 70.802739
  C -2.788509 -1.889004 0.522747
  C -1.411273 -1.442522 0.195734
  C -1.430706 -2.052706 -2.190052
  C -1.003674 -0.130945 0.052630
  C -1.931864 1.067874 0.043400
  O 0.167610 0.270593 -0.144334
  H -2.914336 -2.941684 0.303338
  H -3.540348 -1.342516 -0.044750
  H -2.998727 -1.713245 1.572097
  H -0.651313 -2.201507 0.286569
  H -2.243939 -1.373987 -2.359844
  H -1.644869 -3.064925 -1.919361
  H -0.464478 -1.769168 -2.535691
  H -2.962672 0.741970 -0.046132
  H -1.691845 1.703050 -0.807750
  H -1.820387 1.641642 0.952454
  O 1.682887 -0.653880 0.635063
  H 2.064938 -0.049448 1.287687
  H 2.274754 -0.804859 -0.121862
 19
 93.278427
  C -2.754719 -1.870319 0.565224
  C -1.362886 -1.416667 0.326840
  C -1.478542 -2.165104 -2.431489
  C -0.972701 -0.130758 0.154865
  C -1.868078 1.090409 0.064554
  O 0.254239 0.263704 -0.036378
  H -2.850966 -2.925949 0.324045
  H -3.477933 -1.315781 -0.025429
  H -3.013420 -1.746367 1.613631
  H -0.594401 -2.168784 0.437889
  H -2.301240 -1.488713 -2.526019
  H -1.649288 -3.162914 -2.097908
  H -0.521358 -1.888426 -2.826708
  H -2.910487 0.786299 0.050191
  H -1.635482 1.639203 -0.838619
  H -1.700739 1.750663 0.921476
  O 1.529277 -0.572215 0.718076
  H 1.879951 0.050978 1.390964
  H 2.153045 -0.708409 -0.024935
 19
 98.198448
  C -2.727706 -1.836945 0.624405
  C -1.327911 -1.369264 0.413722
  C -1.487225 -2.308718 -2.657522
  C -0.962614 -0.105562 0.224088
  C -1.827366 1.114199 0.118152
  O 0.329060 0.305809 0.049850
  H -2.805266 -2.894230 0.388418
  H -3.438787 -1.292926 0.008305
  H -3.015272 -1.708603 1.667027
  H -0.561234 -2.121636 0.535484
  H -2.316951 -1.646670 -2.771577
  H -1.651077 -3.300416 -2.300530
  H -0.544707 -2.049402 -3.087185
  H -2.869938 0.824186 0.107554
  H -1.595315 1.657052 -0.796655
  H -1.649178 1.776845 0.962613
  O 1.390531 -0.496981 0.770468
  H 1.731946 0.115613 1.485946
  H 2.086774 -0.622240 0.062012
 19
 98.340677
  C -2.731387 -1.797126 0.672926
  C -1.329898 -1.316087 0.496599
  C -1.445075 -2.469554 -2.886068
  C -0.978170 -0.050690 0.315617
  C -1.842432 1.165071 0.194725
  O 0.320413 0.385890 0.170958
  H -2.791677 -2.856269 0.439015
  H -3.428572 -1.263810 0.031867
  H -3.051771 -1.665474 1.705927
  H -0.561972 -2.064615 0.630138
  H -2.279170 -1.817598 -3.024244
  H -1.600551 -3.444878 -2.481647
  H -0.498849 -2.215070 -3.309972
  H -2.885551 0.875681 0.190382
  H -1.613464 1.697602 -0.726709
  H -1.662029 1.837843 1.030671
  O 1.371976 -0.466323 0.783703
  H 1.761683 0.105530 1.511540
  H 2.034755 -0.586006 0.039345
 19
 98.386829
  C -2.755128 -1.755447 0.710807
  C -1.350814 -1.268123 0.572927
  C -1.362583 -2.616986 -3.121793
  C -1.003209 -0.001882 0.409744
  C -1.863409 1.214560 0.286066
  O 0.299171 0.450536 0.294677
  H -2.806969 -2.812097 0.464911
  H -3.437249 -1.217485 0.057578
  H -3.102595 -1.634130 1.737055
  H -0.584924 -2.017984 0.702683
  H -2.217520 -2.001453 -3.295553
  H -1.487555 -3.583071 -2.685165
  H -0.413317 -2.329601 -3.516726
  H -2.907947 0.928343 0.287289
  H -1.635813 1.742495 -0.637642
  H -1.676363 1.888952 1.119442
  O 1.352393 -0.452750 0.778021
  H 1.801677 0.068509 1.511256
  H 1.968146 -0.554199 -0.010950
 19
 98.577665
  C -2.783904 -1.692700 0.753986
  C -1.375963 -1.218828 0.606275
  C -1.270970 -2.832916 -3.409684
  C -1.021087 0.045968 0.454912
  C -1.873028 1.268799 0.353520
  O 0.282250 0.492988 0.330266
  H -2.843681 -2.754256 0.533250
  H -3.460207 -1.164899 0.086190
  H -3.132884 -1.543346 1.775984
  H -0.616068 -1.975116 0.729357
  H -2.160199 -2.281303 -3.621451
  H -1.340624 -3.785182 -2.932146
  H -0.331406 -2.488654 -3.780797
  H -2.918622 0.995142 0.426080
  H -1.696969 1.773260 -0.594577
  H -1.626514 1.958742 1.158062
  O 1.334918 -0.452630 0.705196
  H 1.865536 0.046047 1.400064
  H 1.876913 -0.574469 -0.133107
