19
 0
 C -2.28929360 -2.49318006 -1.51855109
 C -1.93856444 -2.69126376 -0.04892070
 C -0.95540697 -3.85053846 0.10480334
 C -1.38841675 -1.46453142 0.68065455
 C -1.07505878 -0.18956171 -0.05978640
 O -1.17310364 -1.51792744 1.89702029
 H -2.73845965 -3.40179392 -1.93431819
 H -1.40208299 -2.25894530 -2.11683008
 H -3.01381128 -1.68195664 -1.64528160
 H -2.86933506 -2.95083833 0.47238915
 H 0.00438519 -3.62078205 -0.37075109
 H -1.35353731 -4.76438675 -0.34893030
 H -0.75725740 -4.06334935 1.16097637
 H -1.35827704 -0.21677876 -1.11035998
 H 0.00000000 0.00000000 0.00000000
 H -1.62181277 0.63192339 0.41229678
 O 2.30000000 0.00000000 0.00000000
 H 2.98474093 0.23913281 0.64258244
 H 2.78881206 -0.44606170 -0.70784698
