 17
 0.000000
  H 1.433585 -0.075865 0.039123
  C 2.505878 -0.083029 0.025062
  C 3.219891 -0.594189 -0.978435
  C 4.657065 -0.605975 -1.001570
  C 5.377626 -1.121303 -2.013243
  C 6.815403 -1.131503 -2.033264
  C 7.535097 -1.642378 -3.036203
  C 9.024330 -1.661490 -3.073715
  H 3.004167 0.352075 0.879247
  H 2.709376 -1.027646 -1.829373
  H 5.162042 -0.171388 -0.148405
  H 4.871338 -1.555822 -2.866276
  H 7.320680 -0.696888 -1.180043
  H 7.036666 -2.078549 -3.892463
  H 9.455655 -1.208108 -2.183662
  H 9.384289 -1.116262 -3.947183
  H 9.384289 -2.688598 -3.146264
 17
 0.819841
  H 1.414673 -0.157807 0.025684
  C 2.490355 -0.131991 0.037913
  C 3.222960 -0.606291 -0.968722
  C 4.660277 -0.584457 -0.992423
  C 5.397638 -1.045435 -2.016827
  C 6.833798 -1.060134 -2.038248
  C 7.536184 -1.571220 -3.053193
  C 9.019359 -1.713910 -3.078782
  H 2.950992 0.299394 0.911998
  H 2.736018 -1.032855 -1.836477
  H 5.153239 -0.161354 -0.126329
  H 4.914879 -1.538213 -2.851044
  H 7.345192 -0.649612 -1.176138
  H 7.022361 -1.860199 -3.961343
  H 9.486144 -1.134573 -2.285686
  H 9.423704 -1.396104 -4.038780
  H 9.289252 -2.762317 -2.938585
 17
 3.615749
  H 1.400589 -0.234833 0.011987
  C 2.476030 -0.183751 0.035867
  C 3.228006 -0.628559 -0.968762
  C 4.664061 -0.561281 -0.986499
  C 5.420111 -0.978729 -2.019312
  C 6.854553 -0.955285 -2.045046
  C 7.534981 -1.518008 -3.050008
  C 9.001127 -1.781193 -3.076174
  H 2.916587 0.269461 0.908448
  H 2.759539 -1.078097 -1.837402
  H 5.141030 -0.174185 -0.096516
  H 4.970524 -1.516845 -2.846201
  H 7.368299 -0.482901 -1.218870
  H 7.024365 -1.708414 -3.986770
  H 9.521442 -1.220538 -2.300273
  H 9.429930 -1.537482 -4.047674
  H 9.174430 -2.843059 -2.895793
 17
 11.475425
  H 1.399184 -0.189415 -0.038532
  C 2.476052 -0.169130 0.013328
  C 3.240083 -0.667717 -0.958316
  C 4.674114 -0.610375 -0.959666
  C 5.431777 -0.947344 -2.019835
  C 6.861483 -0.865267 -2.078603
  C 7.502742 -1.508863 -3.072089
  C 8.962746 -1.819250 -3.071108
  H 2.905812 0.249235 0.910241
  H 2.780096 -1.141087 -1.817696
  H 5.153903 -0.292450 -0.037681
  H 5.037675 -1.548439 -2.824331
  H 7.400182 -0.358765 -1.287794
  H 7.040960 -1.544555 -4.048322
  H 9.487963 -1.268730 -2.286791
  H 9.420778 -1.601946 -4.034259
  H 9.093877 -2.883070 -2.873906
 17
 24.532514
  H 1.385277 -0.390709 -0.120169
  C 2.441538 -0.304041 -0.021033
  C 3.270370 -0.641814 -1.007079
  C 4.691502 -0.537879 -0.926517
  C 5.487542 -0.898014 -1.931163
  C 6.909092 -0.742989 -2.033933
  C 7.488125 -1.410805 -3.054039
  C 8.893481 -1.894921 -3.102729
  H 2.810664 0.095682 0.924252
  H 2.884003 -0.977094 -1.943312
  H 5.114321 -0.245727 0.006644
  H 5.226016 -1.644359 -2.647204
  H 7.462672 -0.064188 -1.377051
  H 7.023486 -1.392946 -4.023351
  H 9.510529 -1.421730 -2.354657
  H 9.357961 -1.755425 -4.072637
  H 8.896140 -2.986663 -2.891622
 17
 42.558129
  H 1.382325 -0.557959 -0.175402
  C 2.445098 -0.451956 -0.034482
  C 3.307491 -0.624728 -1.040429
  C 4.725839 -0.474736 -0.907004
  C 5.591824 -0.725157 -1.920529
  C 6.977732 -0.521999 -2.086298
  C 7.433567 -1.360100 -3.082577
  C 8.773689 -2.019287 -3.055171
  H 2.777110 -0.209132 0.962836
  H 2.941618 -0.864156 -2.030572
  H 5.102840 -0.258583 0.082819
  H 5.408431 -1.538485 -2.666241
  H 7.587927 0.168592 -1.519873
  H 7.041076 -1.239435 -4.079294
  H 9.419018 -1.570762 -2.291502
  H 9.280315 -1.946179 -4.015347
  H 8.646362 -3.073372 -2.820555
 17
 58.937191
  H 1.399057 -0.612720 -0.310247
  C 2.459778 -0.548678 -0.098945
  C 3.382674 -0.729749 -1.044740
  C 4.782487 -0.513673 -0.846507
  C 5.686042 -0.561879 -1.866732
  C 7.043598 -0.390644 -2.072816
  C 7.354497 -1.268973 -3.105544
  C 8.633419 -2.060447 -3.055786
  H 2.733244 -0.334695 0.910287
  H 3.069252 -0.897162 -2.081587
  H 5.130632 -0.431559 0.168916
  H 5.572272 -1.369100 -2.680636
  H 7.736524 0.268505 -1.565352
  H 7.007548 -1.009030 -4.084554
  H 9.301810 -1.677700 -2.284748
  H 9.153985 -2.102202 -4.014933
  H 8.391198 -3.085635 -2.756657
 17
 72.682484
  H 1.467324 -0.855204 -0.440798
  C 2.501494 -0.712690 -0.180953
  C 3.457549 -0.624890 -1.106797
  C 4.843297 -0.402287 -0.813381
  C 5.814062 -0.403686 -1.740120
  C 7.095824 -0.186113 -2.082610
  C 7.269695 -1.246052 -3.062555
  C 8.470613 -2.150827 -3.013127
  H 2.727851 -0.638080 0.869815
  H 3.196870 -0.699585 -2.156309
  H 5.123534 -0.368734 0.234874
  H 5.862658 -1.434209 -2.619278
  H 7.804713 0.553517 -1.759441
  H 6.891758 -1.054134 -4.059217
  H 9.214246 -1.746606 -2.327212
  H 8.918461 -2.275573 -3.998352
  H 8.194553 -3.139854 -2.649401
 17
 58.671363
  H 1.518038 -0.976593 -0.559587
  C 2.522319 -0.759123 -0.242400
  C 3.517728 -0.568513 -1.110692
  C 4.900157 -0.373989 -0.752383
  C 5.891293 -0.281483 -1.606092
  C 7.090286 -0.074537 -2.059332
  C 7.203750 -1.233002 -3.049059
  C 8.365277 -2.196314 -3.003033
  H 2.702208 -0.756693 0.820285
  H 3.303953 -0.609805 -2.172762
  H 5.153871 -0.408955 0.304338
  H 6.147215 -1.526412 -2.725453
  H 7.819985 0.684858 -1.838615
  H 6.824801 -1.038479 -4.053493
  H 9.141773 -1.814713 -2.348635
  H 8.772415 -2.349616 -4.002566
  H 8.024792 -3.155140 -2.607892
 17
 40.680982
  H 1.448986 -0.680443 -0.498803
  C 2.479172 -0.645554 -0.188654
  C 3.474285 -0.536068 -1.060600
  C 4.866900 -0.457681 -0.679845
  C 5.861443 -0.407321 -1.523716
  C 6.973817 -0.219748 -2.154309
  C 7.168923 -1.368412 -3.141708
  C 8.493273 -2.108168 -3.023176
  H 2.655778 -0.698416 0.872842
  H 3.267236 -0.420701 -2.120651
  H 5.098608 -0.605288 0.368565
  H 6.229406 -1.852573 -2.771306
  H 7.662687 0.595067 -2.028266
  H 6.806043 -1.188337 -4.159113
  H 9.170159 -1.571217 -2.367349
  H 8.975101 -2.202951 -3.994254
  H 8.356846 -3.114322 -2.620837
 17
 31.161788
  H 1.457329 -0.715289 -0.418663
  C 2.491871 -0.638627 -0.132143
  C 3.461218 -0.533011 -1.030320
  C 4.862133 -0.435738 -0.691898
  C 5.837605 -0.376538 -1.559503
  C 6.926701 -0.215469 -2.254677
  C 7.171495 -1.436537 -3.117116
  C 8.542942 -2.083221 -3.026658
  H 2.700601 -0.651308 0.924521
  H 3.223055 -0.502711 -2.085416
  H 5.116443 -0.533741 0.360348
  H 6.275374 -1.981834 -2.758334
  H 7.584851 0.635550 -2.220381
  H 6.825058 -1.281383 -4.146961
  H 9.149857 -1.575910 -2.281728
  H 9.049164 -2.061095 -3.987557
  H 8.459486 -3.126622 -2.723540
 17
 19.775851
  H 1.429840 -0.411698 -0.466672
  C 2.453762 -0.480733 -0.139827
  C 3.470269 -0.423867 -0.993088
  C 4.855525 -0.538740 -0.593864
  C 5.856889 -0.518783 -1.432472
  C 6.841149 -0.368907 -2.261158
  C 7.174980 -1.562053 -3.113219
  C 8.634776 -2.005297 -3.080904
  H 2.612148 -0.603440 0.919526
  H 3.290692 -0.313438 -2.058498
  H 5.040847 -0.772405 0.451882
  H 6.471657 -2.287736 -2.697236
  H 7.414151 0.545379 -2.351914
  H 6.799454 -1.432716 -4.131932
  H 9.186912 -1.439964 -2.333190
  H 9.107020 -1.851171 -4.046459
  H 8.715386 -3.061989 -2.828054
 17
 15.487710
  H 1.423318 -0.216302 -0.378735
  C 2.436849 -0.423424 -0.082029
  C 3.447826 -0.356659 -0.940294
  C 4.823906 -0.631198 -0.575034
  C 5.814840 -0.597006 -1.426579
  C 6.768060 -0.509280 -2.297741
  C 7.201360 -1.680410 -3.127560
  C 8.719637 -1.902121 -3.105926
  H 2.589496 -0.687024 0.950537
  H 3.280563 -0.079705 -1.972046
  H 5.007686 -0.903139 0.457655
  H 6.664993 -2.549740 -2.744316
  H 7.303465 0.418747 -2.445561
  H 6.853800 -1.556575 -4.158854
  H 9.196951 -1.235196 -2.391830
  H 9.154126 -1.712742 -4.083673
  H 8.954287 -2.923567 -2.817748
 17
 15.684293
  H 1.397060 -0.024542 -0.373634
  C 2.394142 -0.304410 -0.080069
  C 3.407902 -0.310339 -0.942149
  C 4.763333 -0.671902 -0.579250
  C 5.748890 -0.722806 -1.429525
  C 6.773093 -0.680733 -2.224865
  C 7.260402 -1.792575 -3.111858
  C 8.794539 -1.848940 -3.182859
  H 2.527481 -0.589641 0.951147
  H 3.256465 -0.019085 -1.973449
  H 4.929658 -0.953982 0.454020
  H 6.866104 -2.747677 -2.759517
  H 7.319923 0.252541 -2.327700
  H 6.848966 -1.643598 -4.115078
  H 9.241654 -1.092030 -2.542223
  H 9.147523 -1.675021 -4.196503
  H 9.163984 -2.817712 -2.858210
 17
 15.046051
  H 1.416581 -0.144087 -0.357501
  C 2.428933 -0.375423 -0.073794
  C 3.429808 -0.337498 -0.946418
  C 4.802624 -0.641992 -0.600360
  C 5.789986 -0.608748 -1.456562
  C 6.775172 -0.575662 -2.295781
  C 7.227068 -1.738734 -3.137558
  C 8.754382 -1.901399 -3.118728
  H 2.588657 -0.640426 0.957990
  H 3.250532 -0.069332 -1.978168
  H 4.994128 -0.911106 0.431843
  H 6.743268 -2.648916 -2.781336
  H 7.327390 0.345820 -2.442356
  H 6.885301 -1.566753 -4.162286
  H 9.210697 -1.195059 -2.427876
  H 9.182405 -1.731055 -4.103581
  H 9.034188 -2.902084 -2.799250
