 22
 0.000000
  C 0.991180 0.128208 0.373322
  C 2.457883 0.139429 0.391868
  C 3.222944 0.608443 1.560339
  C 2.446764 1.096142 2.777082
  C 3.399330 1.540571 3.883064
  C 3.114948 -0.321400 -0.753055
  C 4.510993 -0.388085 -0.921836
  C 5.097370 -0.846382 -2.051701
  H 4.538228 -1.198949 -2.904280
  H 6.170216 -0.879480 -2.148740
  H 0.544795 0.481175 1.295021
  H 0.630693 -0.884736 0.177143
  H 0.620712 0.735032 -0.455752
  H 3.893134 1.413065 1.230953
  H 3.894282 -0.199981 1.877898
  H 1.809467 0.298897 3.164829
  H 1.808175 1.939340 2.506316
  H 4.036018 0.719966 4.205436
  H 2.838654 1.886933 4.747452
  H 4.034862 2.357189 3.548507
  H 2.501638 -0.656765 -1.579621
  H 5.141142 -0.052968 -0.110546
 22
 0.294191
  C 1.011114 0.135157 0.358902
  C 2.475950 0.089671 0.424619
  C 3.222909 0.513485 1.618219
  C 2.442349 1.130113 2.771089
  C 3.380802 1.537566 3.902155
  C 3.145772 -0.395243 -0.701040
  C 4.526731 -0.298753 -0.961920
  C 5.070063 -0.781108 -2.108556
  H 4.471668 -1.299157 -2.840561
  H 6.117788 -0.668413 -2.324112
  H 0.554605 0.594338 1.225718
  H 0.616270 -0.876081 0.237893
  H 0.701375 0.666830 -0.543309
  H 4.014934 1.207212 1.312478
  H 3.772962 -0.359176 1.995671
  H 1.714549 0.417628 3.163424
  H 1.901978 2.013934 2.426623
  H 3.918280 0.677914 4.294781
  H 2.817018 1.979294 4.719008
  H 4.107755 2.271501 3.563245
  H 2.543798 -0.855224 -1.474424
  H 5.165382 0.210598 -0.255697
 22
 1.713408
  C 1.026789 0.126094 0.348098
  C 2.485693 0.016339 0.460366
  C 3.215021 0.418080 1.670663
  C 2.451855 1.174822 2.750443
  C 3.382026 1.549239 3.902301
  C 3.167094 -0.495403 -0.646710
  C 4.502473 -0.229460 -0.999428
  C 5.050659 -0.702841 -2.147396
  H 4.514647 -1.385892 -2.788638
  H 6.041595 -0.418655 -2.453850
  H 0.565996 0.605260 1.204233
  H 0.585699 -0.862187 0.203471
  H 0.783404 0.683902 -0.559240
  H 4.105100 0.987965 1.386189
  H 3.631317 -0.498619 2.116876
  H 1.638519 0.563970 3.147056
  H 2.022633 2.085754 2.331089
  H 3.808364 0.663962 4.365322
  H 2.834800 2.093705 4.666037
  H 4.195824 2.182917 3.558855
  H 2.591357 -1.078611 -1.356159
  H 5.083676 0.441560 -0.383553
 22
 3.712955
  C 1.037168 0.142402 0.331226
  C 2.489447 -0.014361 0.477929
  C 3.210650 0.380770 1.692919
  C 2.464307 1.197519 2.738251
  C 3.386689 1.535247 3.906565
  C 3.187424 -0.567616 -0.602754
  C 4.454146 -0.156607 -1.048134
  C 5.038922 -0.668189 -2.161850
  H 4.600403 -1.492315 -2.700822
  H 5.966500 -0.276209 -2.535965
  H 0.582318 0.664881 1.162627
  H 0.555694 -0.827034 0.199832
  H 0.843613 0.689310 -0.593582
  H 4.141182 0.892684 1.415155
  H 3.564788 -0.549290 2.165769
  H 1.607795 0.640813 3.123687
  H 2.100768 2.124381 2.292678
  H 3.746263 0.631998 4.396234
  H 2.854691 2.126874 4.646569
  H 4.244236 2.109323 3.574462
  H 2.672749 -1.308517 -1.206984
  H 4.929292 0.673363 -0.545915
 22
 6.818691
  C 1.069119 0.197699 0.291412
  C 2.495652 -0.062904 0.504430
  C 3.214692 0.352095 1.712263
  C 2.462345 1.180501 2.751750
  C 3.385378 1.535822 3.915727
  C 3.210682 -0.652065 -0.553306
  C 4.401031 -0.138990 -1.078384
  C 5.014815 -0.657798 -2.173998
  H 4.699822 -1.593365 -2.606518
  H 5.814263 -0.135047 -2.664519
  H 0.617070 0.760784 1.100077
  H 0.516515 -0.732440 0.142119
  H 0.974470 0.747281 -0.647834
  H 4.141268 0.861495 1.423391
  H 3.575583 -0.568845 2.191002
  H 1.609297 0.622218 3.142724
  H 2.094459 2.102878 2.297144
  H 3.752355 0.641157 4.411227
  H 2.851277 2.129564 4.651249
  H 4.239995 2.114959 3.575525
  H 2.742428 -1.471925 -1.086423
  H 4.791912 0.772851 -0.643628
 22
 11.567988
  C 1.125512 0.244522 0.251576
  C 2.530238 -0.052116 0.523960
  C 3.217152 0.322373 1.761946
  C 2.479188 1.209409 2.759522
  C 3.369778 1.505428 3.962953
  C 3.271790 -0.690896 -0.500117
  C 4.330844 -0.083525 -1.167119
  C 4.958244 -0.636151 -2.240217
  H 4.746189 -1.641702 -2.560316
  H 5.674590 -0.077093 -2.814157
  H 0.667772 0.869837 1.009015
  H 0.543182 -0.672332 0.142481
  H 1.087081 0.728659 -0.726308
  H 4.196008 0.757780 1.513893
  H 3.487067 -0.620486 2.257518
  H 1.572752 0.716636 3.109087
  H 2.201618 2.151566 2.285960
  H 3.646455 0.588719 4.480342
  H 2.846892 2.143635 4.669712
  H 4.280701 2.017601 3.660240
  H 2.917514 -1.647917 -0.863634
  H 4.603615 0.919574 -0.865596
 22
 16.892338
  C 1.196564 0.326693 0.215712
  C 2.566573 -0.027483 0.541336
  C 3.216570 0.311432 1.801430
  C 2.475635 1.218004 2.779991
  C 3.329802 1.471601 4.017164
  C 3.330656 -0.705342 -0.463587
  C 4.251745 -0.062177 -1.284666
  C 4.891531 -0.660329 -2.327536
  H 4.769161 -1.706946 -2.536358
  H 5.523941 -0.097372 -2.985039
  H 0.744277 0.993965 0.933987
  H 0.580402 -0.571660 0.136068
  H 1.190641 0.757738 -0.791347
  H 4.222976 0.707835 1.592606
  H 3.436378 -0.644673 2.295462
  H 1.539877 0.757393 3.090082
  H 2.250978 2.174857 2.305726
  H 3.552109 0.543819 4.536331
  H 2.805509 2.123972 4.709068
  H 4.268062 1.950434 3.752924
  H 3.091888 -1.741250 -0.662619
  H 4.432950 0.991116 -1.103160
 22
 21.781385
  C 1.292032 0.454657 0.167080
  C 2.617205 0.025821 0.552135
  C 3.219701 0.310376 1.839784
  C 2.482593 1.232697 2.806232
  C 3.298474 1.425501 4.081345
  C 3.394102 -0.688350 -0.432520
  C 4.163317 -0.063090 -1.397116
  C 4.785095 -0.726383 -2.419605
  H 4.715736 -1.794732 -2.522159
  H 5.355331 -0.195242 -3.158476
  H 0.837452 1.156859 0.856493
  H 0.647608 -0.429141 0.087209
  H 1.312025 0.835456 -0.857394
  H 4.250486 0.655169 1.677756
  H 3.381220 -0.664205 2.328714
  H 1.512687 0.811084 3.071375
  H 2.322131 2.206687 2.341692
  H 3.457006 0.479163 4.593084
  H 2.777455 2.091222 4.764659
  H 4.269088 1.864964 3.862820
  H 3.274875 -1.763097 -0.477754
  H 4.279514 1.010507 -1.334206
 22
 15.813860
  C 1.396722 0.587000 0.116417
  C 2.693322 0.082125 0.540178
  C 3.246826 0.303190 1.877016
  C 2.486770 1.230118 2.820507
  C 3.239230 1.373069 4.140548
  C 3.465628 -0.643242 -0.414027
  C 4.067640 -0.068786 -1.532952
  C 4.679135 -0.807350 -2.500385
  H 4.684645 -1.883222 -2.468273
  H 5.172855 -0.336914 -3.330887
  H 0.974207 1.330023 0.782046
  H 0.715838 -0.271165 0.079335
  H 1.417948 0.926142 -0.920703
  H 4.287831 0.630524 1.773172
  H 3.350735 -0.681843 2.359397
  H 1.491617 0.833601 3.024492
  H 2.381153 2.218403 2.369696
  H 3.342030 0.412073 4.639512
  H 2.702790 2.041404 4.809226
  H 4.233226 1.786109 3.981877
  H 3.534021 -1.718149 -0.295678
  H 4.082289 1.009959 -1.602784
 22
 9.775961
  C 1.518831 0.689621 0.078865
  C 2.782657 0.131450 0.547113
  C 3.273086 0.297655 1.922081
  C 2.487180 1.225340 2.842014
  C 3.166098 1.322081 4.204922
  C 3.557346 -0.594708 -0.378927
  C 3.983219 -0.093798 -1.619638
  C 4.539954 -0.890068 -2.568460
  H 4.607551 -1.957005 -2.439466
  H 4.918218 -0.481888 -3.488669
  H 1.128150 1.485379 0.702634
  H 0.790661 -0.129744 0.089124
  H 1.572497 0.965192 -0.974099
  H 4.324020 0.605299 1.883545
  H 3.319023 -0.699675 2.384699
  H 1.471392 0.853477 2.979101
  H 2.433974 2.225656 2.408997
  H 3.217260 0.348581 4.686959
  H 2.608885 1.989586 4.857166
  H 4.176947 1.712520 4.111586
  H 3.813660 -1.620552 -0.141122
  H 3.915810 0.971747 -1.788707
 22
 5.490211
  C 1.648852 0.821149 0.037830
  C 2.878550 0.211065 0.538214
  C 3.298881 0.308653 1.945084
  C 2.487128 1.224462 2.852358
  C 3.085359 1.258169 4.255482
  C 3.652721 -0.525114 -0.363289
  C 3.911104 -0.140389 -1.694801
  C 4.398157 -1.010604 -2.613534
  H 4.527942 -2.055467 -2.386217
  H 4.643052 -0.692524 -3.611628
  H 1.320381 1.682913 0.608833
  H 0.860646 0.064128 0.123226
  H 1.718841 1.012564 -1.030940
  H 4.356832 0.593432 1.978015
  H 3.289475 -0.706155 2.367855
  H 1.455383 0.876728 2.914846
  H 2.483313 2.240777 2.453669
  H 3.087272 0.267471 4.703998
  H 2.504646 1.915214 4.897767
  H 4.108068 1.627709 4.236020
  H 4.087832 -1.460039 -0.030618
  H 3.763275 0.894781 -1.969507
 22
 5.224295
  C 1.785970 0.850014 -0.004926
  C 3.006179 0.258067 0.544480
  C 3.342654 0.324217 1.976728
  C 2.457262 1.196765 2.854133
  C 2.980862 1.241755 4.285877
  C 3.833095 -0.436351 -0.331267
  C 3.919336 -0.147972 -1.719035
  C 4.183671 -1.084495 -2.655961
  H 4.261225 -2.128804 -2.402390
  H 4.260646 -0.827145 -3.697672
  H 1.463194 1.750884 0.506679
  H 0.980960 0.117274 0.124526
  H 1.883125 0.958531 -1.083447
  H 4.390810 0.625165 2.087693
  H 3.321487 -0.705219 2.362072
  H 1.434250 0.817956 2.857662
  H 2.437153 2.216852 2.463562
  H 3.016272 0.245788 4.721457
  H 2.332940 1.855116 4.906699
  H 3.981081 1.667248 4.323500
  H 4.432998 -1.256715 0.042785
  H 3.830844 0.888574 -2.019156
