 29
 0.000000
  C 0.951067 0.144603 0.410543
  C 2.426453 0.138916 0.396438
  C 3.223570 0.604689 1.555789
  C 2.461137 1.097391 2.782068
  H 3.150426 1.406788 3.552592
  C 3.036797 -0.327477 -0.764603
  C 4.413968 -0.408534 -0.967431
  C 5.105488 -0.857924 -2.087841
  C 4.616777 -1.381570 -3.392869
  C 3.128845 -1.504154 -3.698547
  C 2.934583 -2.068109 -5.103982
  O 6.423911 -0.848003 -2.063746
  H 0.532542 0.517122 1.337417
  H 0.575348 -0.864830 0.236476
  H 0.575254 0.752826 -0.413637
  H 3.881789 1.412707 1.217302
  H 3.881689 -0.212976 1.870435
  H 1.826956 0.306057 3.179756
  H 1.827225 1.944119 2.521787
  H 2.375545 -0.643956 -1.552098
  H 5.037129 -0.078136 -0.145139
  H 5.082981 -2.366648 -3.514931
  H 5.083227 -0.754269 -4.162007
  H 2.649034 -0.526404 -3.651624
  H 2.649020 -2.178290 -2.988839
  H 3.383859 -1.417658 -5.850693
  H 1.875445 -2.159155 -5.330910
  H 3.383936 -3.054276 -5.193955
  H 6.802030 -0.513395 -1.228723
 29
 18.593289
  C 0.933994 0.168097 0.470684
  C 2.407295 0.149259 0.422883
  C 3.253369 0.603089 1.550758
  C 2.535924 1.105261 2.800149
  H 3.272690 1.404524 3.544375
  C 2.991849 -0.328670 -0.766343
  C 4.407116 -0.423931 -1.004735
  C 4.994859 -0.866719 -2.109101
  C 4.617185 -1.399351 -3.437115
  C 3.147690 -1.538065 -3.783364
  C 2.997537 -2.102525 -5.191121
  O 6.229036 -0.765559 -1.857490
  H 0.542064 0.544862 1.407330
  H 0.544241 -0.839180 0.301140
  H 0.543670 0.777021 -0.349116
  H 3.912463 1.400331 1.184510
  H 3.912981 -0.225316 1.838343
  H 1.914125 0.329935 3.239252
  H 1.913914 1.968617 2.580531
  H 2.312612 -0.642209 -1.546327
  H 5.006916 -0.090452 -0.173308
  H 5.106556 -2.368515 -3.532953
  H 5.106673 -0.765281 -4.176196
  H 2.659074 -0.564122 -3.745791
  H 2.658846 -2.216163 -3.083337
  H 3.461105 -1.446644 -5.924859
  H 1.946573 -2.205050 -5.447237
  H 3.460890 -3.083702 -5.268460
  H 6.505047 -0.419867 -0.993555
 29
 68.409209
  C 0.917897 0.193822 0.541905
  C 2.385069 0.168004 0.472102
  C 3.250173 0.614030 1.574696
  C 2.546749 1.119723 2.830652
  H 3.287741 1.415894 3.562690
  C 2.969638 -0.335958 -0.780636
  C 4.486533 -0.445659 -1.055279
  C 4.963597 -0.893673 -2.173675
  C 4.650773 -1.421687 -3.492500
  C 3.172429 -1.560436 -3.844492
  C 3.021003 -2.127065 -5.256099
  O 6.144756 -0.735208 -1.778228
  H 0.544439 0.575046 1.488086
  H 0.519296 -0.812233 0.377123
  H 0.516469 0.802306 -0.274581
  H 3.907310 1.408657 1.195779
  H 3.909722 -0.219395 1.852619
  H 1.929259 0.344724 3.278970
  H 1.927306 1.987531 2.616385
  H 2.279542 -0.644813 -1.547078
  H 4.998936 -0.098002 -0.188635
  H 5.149528 -2.392614 -3.571440
  H 5.150431 -0.774607 -4.219963
  H 2.686866 -0.581050 -3.799543
  H 2.680661 -2.236802 -3.138942
  H 3.487087 -1.473220 -5.991218
  H 1.969601 -2.228027 -5.513460
  H 3.483057 -3.109854 -5.331618
  H 6.401676 -0.385593 -0.898958
 29
 133.100293
  C 0.862358 0.213556 0.591707
  C 2.326751 0.180015 0.502359
  C 3.233556 0.625595 1.603331
  C 2.572885 1.137595 2.874135
  H 3.325283 1.420642 3.573573
  C 2.899035 -0.330178 -0.765205
  C 4.618673 -0.455797 -1.079912
  C 4.967027 -0.910602 -2.214948
  C 4.691207 -1.446081 -3.553036
  C 3.203592 -1.583861 -3.901723
  C 3.037923 -2.149824 -5.314592
  O 6.140967 -0.717021 -1.733635
  H 0.501702 0.597002 1.542683
  H 0.458214 -0.790468 0.432838
  H 0.455493 0.824391 -0.219518
  H 3.883012 1.409799 1.214747
  H 3.885407 -0.207600 1.867228
  H 1.957623 0.368264 3.343030
  H 1.955611 2.016162 2.678139
  H 2.200875 -0.636225 -1.526383
  H 4.998618 -0.085154 -0.154954
  H 5.180442 -2.406759 -3.628241
  H 5.183760 -0.802840 -4.272393
  H 2.720477 -0.607045 -3.849590
  H 2.717875 -2.253439 -3.190103
  H 3.498958 -1.495675 -6.053472
  H 1.981758 -2.247969 -5.563698
  H 3.497576 -3.136582 -5.395967
  H 6.430718 -0.380027 -0.883089
 29
 152.974322
  C 0.649088 0.292405 0.746961
  C 2.139531 0.202770 0.472843
  C 3.138878 0.614454 1.529676
  C 2.562973 1.092377 2.857202
  H 3.379209 1.339802 3.531277
  C 2.507430 -0.243990 -0.712226
  C 4.961110 -0.451764 -1.166487
  C 5.093684 -0.935642 -2.328340
  C 4.800636 -1.471050 -3.630777
  C 3.295075 -1.599549 -3.898609
  C 3.063294 -2.175235 -5.292762
  O 6.454001 -0.710788 -1.823294
  H 0.464817 0.674424 1.744112
  H 0.188945 -0.684493 0.653479
  H 0.177634 0.960397 0.031007
  H 3.766285 1.404657 1.122482
  H 3.761781 -0.252497 1.740989
  H 1.965151 0.322135 3.332247
  H 1.957494 1.984117 2.732412
  H 1.929935 -0.549544 -1.550616
  H 5.063841 -0.054630 -0.188119
  H 5.287051 -2.451287 -3.712622
  H 5.264599 -0.821151 -4.378964
  H 2.831785 -0.622172 -3.833964
  H 2.846632 -2.256967 -3.162266
  H 3.484206 -1.527262 -6.055826
  H 1.996729 -2.266990 -5.488560
  H 3.510676 -3.159387 -5.388284
  H 6.890522 -0.506486 -0.969401
 29
 158.506218
  C 0.487117 0.372842 0.856570
  C 1.968066 0.221954 0.511051
  C 3.029271 0.600776 1.539524
  C 2.533547 1.075909 2.900634
  H 3.387334 1.264772 3.546931
  C 2.299795 -0.234739 -0.665143
  C 5.210321 -0.451792 -1.290100
  C 5.275880 -0.966336 -2.438643
  C 4.915478 -1.516182 -3.712672
  C 3.387076 -1.598727 -3.880273
  C 3.065082 -2.188564 -5.252483
  O 6.643611 -0.686200 -1.968383
  H 0.358670 0.762513 1.859613
  H -0.012912 -0.585217 0.786480
  H 0.018185 1.064762 0.164644
  H 3.682887 1.352710 1.114114
  H 3.587787 -0.314773 1.727144
  H 1.911951 0.325533 3.381172
  H 1.969419 2.004297 2.824893
  H 1.781759 -0.537989 -1.550891
  H 5.222190 -0.132618 -0.279574
  H 5.358441 -2.509838 -3.807108
  H 5.343816 -0.890036 -4.495996
  H 2.964864 -0.598323 -3.825348
  H 2.969207 -2.249868 -3.115912
  H 3.458697 -1.561093 -6.050549
  H 1.985034 -2.240786 -5.389114
  H 3.465596 -3.193378 -5.356951
  H 7.171448 -0.456352 -1.176581
 29
 155.256947
  C 0.357353 0.388349 0.974425
  C 1.812100 0.222674 0.575165
  C 2.920886 0.594140 1.565837
  C 2.495308 1.122440 2.925441
  H 3.380634 1.335756 3.516896
  C 2.114567 -0.246812 -0.607584
  C 5.467004 -0.504998 -1.373532
  C 5.406480 -1.008192 -2.527663
  C 5.014131 -1.541491 -3.790485
  C 3.474101 -1.584926 -3.889419
  C 3.056959 -2.155580 -5.242055
  O 6.834957 -0.733588 -2.072966
  H 0.264324 0.781535 1.979043
  H -0.149494 -0.571599 0.925844
  H -0.135476 1.073954 0.286644
  H 3.548131 1.347800 1.092587
  H 3.515507 -0.303032 1.733777
  H 1.903896 0.392699 3.469622
  H 1.929176 2.044862 2.838140
  H 1.629724 -0.586452 -1.490403
  H 5.266032 -0.122884 -0.416554
  H 5.430150 -2.549478 -3.907814
  H 5.431633 -0.920086 -4.590334
  H 3.076271 -0.580847 -3.779880
  H 3.073915 -2.207915 -3.096355
  H 3.433964 -1.544909 -6.056628
  H 1.970727 -2.183984 -5.318710
  H 3.426923 -3.166405 -5.369166
  H 7.451737 -0.677194 -1.307063
 29
 152.222483
  C 0.242007 0.485594 1.171504
  C 1.673468 0.278267 0.680865
  C 2.836417 0.603027 1.619346
  C 2.485406 1.123762 3.006185
  H 3.407152 1.312979 3.560554
  C 1.898763 -0.164420 -0.510173
  C 5.567105 -0.498826 -1.488278
  C 5.440381 -1.017676 -2.641549
  C 5.093099 -1.575552 -3.894057
  C 3.549164 -1.638724 -4.003798
  C 3.157698 -2.230604 -5.347960
  O 6.904625 -0.700842 -2.118118
  H 0.218991 0.858665 2.186909
  H -0.296008 -0.461895 1.137497
  H -0.269484 1.195234 0.522521
  H 3.458266 1.351214 1.128342
  H 3.420488 -0.305599 1.743235
  H 1.903991 0.398240 3.571061
  H 1.935089 2.057758 2.955155
  H 1.410511 -0.486667 -1.394967
  H 5.306013 -0.160692 -0.520273
  H 5.518904 -2.576354 -3.987271
  H 5.506228 -0.964632 -4.696249
  H 3.131504 -0.636235 -3.913880
  H 3.145608 -2.254344 -3.196928
  H 3.535904 -1.624280 -6.165637
  H 2.075935 -2.271031 -5.433728
  H 3.542351 -3.241001 -5.458741
  H 7.512828 -0.741067 -1.343739
 29
 139.027971
  C 0.210369 0.466797 1.198120
  C 1.647936 0.273843 0.719695
  C 2.805011 0.657931 1.634577
  C 2.447055 1.228526 3.000648
  H 3.362855 1.459523 3.541681
  C 1.888313 -0.217484 -0.465282
  C 5.694382 -0.514897 -1.521843
  C 5.430812 -1.116444 -2.619211
  C 5.108434 -1.574946 -3.911432
  C 3.561414 -1.703274 -3.971636
  C 3.150854 -2.184540 -5.356282
  O 7.008601 -0.675714 -2.063222
  H 0.175353 0.880753 2.198193
  H -0.309501 -0.489280 1.196332
  H -0.315331 1.138195 0.521953
  H 3.412854 1.395409 1.104809
  H 3.415760 -0.235247 1.786330
  H 1.882318 0.514565 3.596591
  H 1.874794 2.149567 2.911415
  H 1.355326 -0.569091 -1.316783
  H 5.409359 -0.139688 -0.566295
  H 5.558695 -2.550254 -4.114599
  H 5.453725 -0.863138 -4.667098
  H 3.107297 -0.734676 -3.766068
  H 3.220967 -2.410690 -3.216638
  H 3.469988 -1.485691 -6.125066
  H 2.068563 -2.270095 -5.406391
  H 3.577476 -3.159827 -5.575302
  H 7.561273 -1.187352 -1.425513
