18

C -3.506066 0.984082 -0.132928
C -2.060498 0.589425 -0.036007
C -1.64841 -0.472903 0.635566
C -0.237678 -0.944737 0.799821
C 0.810173 -0.078861 0.105309
C 2.22171 -0.615786 0.343122
H 2.5426908872840084 -0.3644435106449476 0.12054646717202638
H -4.106219 0.160161 -0.512807
H -3.638689 1.855326 -0.767378
H -3.88003 1.220812 0.864114
H -1.351811 1.22432 -0.543545
H -2.383922 -1.096037 1.134459
H -0.014452 -0.994199 1.87095
H -0.175285 -1.966573 0.40689
H 0.605893 -0.06172 -0.96765
H 0.74879 0.943512 0.485372
H 2.419227 -0.584808 1.415213
H 2.269732 -1.661309 0.033889
