 25
 0.000000
  H 1.593588 0.057511 0.116488
  C 2.667901 0.063214 0.015412
  C 3.406806 -0.010309 1.318454
  C 2.446438 -0.077300 2.505576
  C 3.192148 -0.152161 3.832310
  C 3.208976 0.132264 -1.208303
  C 2.372084 0.203012 -2.462130
  C 0.862998 0.191322 -2.254925
  H 0.362709 0.245685 -3.218373
  C 4.654366 0.142734 -1.393799
  C 5.294704 0.208232 -2.554663
  H 6.370199 0.210603 -2.596656
  H 4.055336 0.864742 1.433116
  H 4.055334 -0.892696 1.333946
  H 1.805321 -0.955745 2.402199
  H 1.805312 0.807196 2.501680
  H 3.823396 -1.037712 3.866350
  H 2.492335 -0.199075 4.663705
  H 3.823387 0.723939 3.965754
  H 2.646431 -0.641009 -3.103923
  H 2.646430 1.113877 -3.004905
  H 0.545102 1.043384 -1.659496
  H 0.545102 -0.722307 -1.759128
  H 5.240347 0.091516 -0.486049
  H 4.791408 0.261796 -3.503970
 25
 7.008642
  H 1.618643 0.058344 0.101726
  C 2.691983 0.064730 -0.011451
  C 3.445171 -0.008068 1.278741
  C 2.396633 -0.082581 2.599173
  C 3.157473 -0.156684 3.912457
  C 3.219609 0.133959 -1.238324
  C 2.370825 0.204298 -2.484909
  C 0.863481 0.191941 -2.265887
  H 0.355353 0.246123 -3.226142
  C 4.663928 0.145145 -1.436534
  C 5.296591 0.211031 -2.604267
  H 6.372413 0.213864 -2.654429
  H 4.090559 0.865969 1.391278
  H 4.090562 -0.889214 1.292236
  H 1.758093 -0.960001 2.497886
  H 1.758085 0.800659 2.597237
  H 3.789725 -1.041855 3.938973
  H 2.467192 -0.204038 4.751664
  H 3.789719 0.719890 4.038381
  H 2.639896 -0.639440 -3.128408
  H 2.639895 1.115074 -3.029411
  H 0.549733 1.044237 -1.667905
  H 0.549733 -0.722210 -1.767579
  H 5.257107 0.094200 -0.533619
  H 4.785997 0.264387 -3.549871
