 12
 0.000000
  H 3.335991 -0.444579 -1.055462
  C 4.414335 -0.450381 -1.070741
  C 5.149027 -0.875370 -2.130650
  C 4.646031 -1.383927 -3.398528
  C 3.164256 -1.466007 -3.604006
  H 2.935162 -1.861837 -4.590392
  H 6.230006 -0.841627 -2.046744
  H 4.923399 -0.096462 -0.189025
  H 5.111743 -2.372507 -3.574673
  H 5.112030 -0.791598 -4.209136
  H 2.689429 -0.487885 -3.505372
  H 2.688871 -2.104237 -2.856616
 12
 2.256151
  H 3.308628 -0.500433 -0.970109
  C 4.380725 -0.460066 -1.046488
  C 5.119306 -0.861566 -2.115194
  C 4.638096 -1.376461 -3.389469
  C 3.161536 -1.459754 -3.621111
  H 2.948535 -1.873083 -4.599646
  H 6.197323 -0.816188 -2.028631
  H 5.029599 -0.091764 -0.278122
  H 5.114998 -2.364178 -3.548721
  H 5.132442 -0.817353 -4.207273
  H 2.687971 -0.478915 -3.556338
  H 2.671400 -2.074655 -2.865241
 12
 9.356753
  H 3.279450 -0.430640 -0.890134
  C 4.336970 -0.443785 -1.021689
  C 5.083176 -0.860364 -2.089990
  C 4.636843 -1.378520 -3.387096
  C 3.161407 -1.473193 -3.639240
  H 2.965071 -1.875771 -4.629195
  H 6.165375 -0.835281 -2.042775
  H 5.120502 -0.136077 -0.373442
  H 5.139893 -2.354071 -3.531931
  H 5.143790 -0.798604 -4.181282
  H 2.686025 -0.494223 -3.557279
  H 2.677190 -2.095198 -2.885555
 12
 16.683732
  H 3.265501 -0.408622 -0.873659
  C 4.321952 -0.443505 -1.027036
  C 5.084242 -0.867844 -2.079869
  C 4.649986 -1.364716 -3.404632
  C 3.165827 -1.461577 -3.628636
  H 2.973505 -1.883329 -4.611556
  H 6.167601 -0.845758 -2.030188
  H 5.146509 -0.173156 -0.414938
  H 5.133006 -2.356840 -3.495235
  H 5.131173 -0.772658 -4.195763
  H 2.672764 -0.493084 -3.589968
  H 2.701753 -2.109064 -2.889013
 12
 19.857307
  H 3.268725 -0.443825 -0.839578
  C 4.309960 -0.438507 -1.067670
  C 5.078152 -0.864446 -2.060599
  C 4.657977 -1.393847 -3.422963
  C 3.175107 -1.458532 -3.616320
  H 2.992176 -1.851087 -4.627561
  H 6.163323 -0.892678 -2.042547
  H 5.141181 -0.104488 -0.443429
  H 5.137032 -2.378090 -3.485844
  H 5.115736 -0.757451 -4.189894
  H 2.695544 -0.482491 -3.573009
  H 2.703986 -2.122595 -2.889725
 12
 21.633533
  H 3.274654 -0.457748 -0.792196
  C 4.304237 -0.490419 -1.042037
  C 5.082799 -0.877547 -2.043240
  C 4.665611 -1.413928 -3.423229
  C 3.177426 -1.453860 -3.627214
  H 2.997789 -1.842841 -4.636647
  H 6.162084 -0.852131 -2.071707
  H 5.144253 -0.058216 -0.504929
  H 5.123084 -2.408575 -3.471931
  H 5.127710 -0.758883 -4.164744
  H 2.720795 -0.466512 -3.587196
  H 2.697897 -2.116252 -2.915181
 12
 22.317596
  H 3.276378 -0.475115 -0.765188
  C 4.304115 -0.501794 -1.028122
  C 5.070782 -0.886605 -2.043677
  C 4.667393 -1.396297 -3.420950
  C 3.181881 -1.450585 -3.637513
  H 3.006646 -1.847162 -4.638125
  H 6.151543 -0.885929 -2.051097
  H 5.168858 -0.024687 -0.565735
  H 5.136058 -2.390079 -3.457886
  H 5.144111 -0.762655 -4.171839
  H 2.710022 -0.467478 -3.608019
  H 2.698010 -2.103795 -2.913814
 12
 24.032001
  H 3.297293 -0.573105 -0.671098
  C 4.305715 -0.545504 -1.009313
  C 5.060286 -0.874142 -2.045570
  C 4.674319 -1.421869 -3.411783
  C 3.190053 -1.433234 -3.658917
  H 3.010834 -1.847738 -4.650252
  H 6.145810 -0.864787 -2.070273
  H 5.145145 0.072796 -0.656195
  H 5.127190 -2.417776 -3.430388
  H 5.168961 -0.795292 -4.162197
  H 2.753769 -0.434660 -3.634201
  H 2.674085 -2.053505 -2.926887
 12
 29.411709
  H 3.285324 -0.571054 -0.685143
  C 4.301769 -0.581344 -0.996780
  C 5.085764 -0.879843 -2.025178
  C 4.676781 -1.422798 -3.393495
  C 3.190862 -1.431122 -3.650504
  H 3.023246 -1.809766 -4.656689
  H 6.170156 -0.866119 -2.041967
  H 5.141118 0.111221 -0.783200
  H 5.108707 -2.426360 -3.425216
  H 5.176262 -0.795518 -4.140283
  H 2.761594 -0.433576 -3.607798
  H 2.668865 -2.076113 -2.947983
 12
 31.270672
  H 3.276812 -0.629145 -0.716686
  C 4.304275 -0.642277 -1.006052
  C 5.119957 -0.892037 -2.026887
  C 4.690364 -1.399568 -3.392696
  C 3.200716 -1.403770 -3.633470
  H 3.010280 -1.790900 -4.632862
  H 6.201563 -0.888133 -2.011824
  H 5.054709 0.180061 -0.904331
  H 5.104947 -2.420196 -3.388089
  H 5.202726 -0.828751 -4.170386
  H 2.775398 -0.406334 -3.582399
  H 2.681913 -2.047385 -2.923792
 12
 32.659769
  H 3.354666 -0.765433 -0.582765
  C 4.344058 -0.672037 -0.950085
  C 5.100777 -0.905136 -2.029030
  C 4.694495 -1.405951 -3.385806
  C 3.207847 -1.378689 -3.662095
  H 3.017770 -1.801685 -4.646791
  H 6.184944 -0.847953 -1.982997
  H 4.960215 0.280678 -1.069644
  H 5.068357 -2.442184 -3.373958
  H 5.245234 -0.862880 -4.154718
  H 2.818314 -0.364020 -3.670574
  H 2.652656 -1.966482 -2.931036
 12
 36.885008
  H 3.369295 -0.698479 -0.536497
  C 4.358437 -0.663101 -0.933119
  C 5.093980 -0.904275 -2.016843
  C 4.707228 -1.398621 -3.382312
  C 3.215190 -1.379627 -3.666554
  H 3.034771 -1.740065 -4.681369
  H 6.178665 -0.949957 -1.945431
  H 4.891966 0.325245 -1.238238
  H 5.085184 -2.432298 -3.400286
  H 5.247951 -0.827009 -4.133089
  H 2.808299 -0.374919 -3.602295
  H 2.678408 -2.023379 -2.975061
 12
 41.660484
  H 3.360334 -0.735801 -0.491551
  C 4.336476 -0.721965 -0.925431
  C 5.094261 -0.880371 -2.001827
  C 4.713097 -1.379824 -3.375792
  C 3.221640 -1.352733 -3.665617
  H 3.045832 -1.720463 -4.674963
  H 6.182209 -0.941332 -1.908543
  H 4.876775 0.316823 -1.468912
  H 5.090127 -2.408194 -3.400181
  H 5.264562 -0.809793 -4.126051
  H 2.820837 -0.344936 -3.607986
  H 2.674979 -1.993113 -2.974350
 12
 43.654623
  H 3.314987 -0.811797 -0.562750
  C 4.320166 -0.758391 -0.925350
  C 5.118603 -0.846202 -1.988249
  C 4.717255 -1.360056 -3.372902
  C 3.223735 -1.325712 -3.641827
  H 3.038412 -1.681857 -4.652010
  H 6.202110 -0.920520 -1.858266
  H 4.874064 0.307232 -1.744360
  H 5.085431 -2.385887 -3.416854
  H 5.257633 -0.774967 -4.120539
  H 2.822605 -0.319109 -3.572358
  H 2.682256 -1.973958 -2.954696
