 28
 0.000000
  C 0.959199 0.139363 0.404368
  C 2.433016 0.142610 0.396758
  C 3.222721 0.608978 1.557936
  C 2.457844 1.098523 2.784142
  C 3.422923 1.539653 3.880371
  C 3.052093 -0.321747 -0.760388
  C 4.435431 -0.409028 -0.969859
  C 5.097507 -0.859728 -2.086752
  C 4.626919 -1.379555 -3.382552
  C 3.145104 -1.504723 -3.703473
  H 3.019443 -1.905685 -4.701936
  H 6.178004 -0.849595 -2.054776
  H 0.530454 0.501361 1.331570
  H 0.591752 -0.872896 0.228621
  H 0.575466 0.754734 -0.411145
  H 3.880407 1.418116 1.219818
  H 3.883864 -0.207418 1.870801
  H 1.823225 0.302304 3.177604
  H 1.819644 1.943761 2.519980
  H 4.060402 0.716029 4.194226
  H 2.870953 1.886881 4.750330
  H 4.056898 2.354543 3.537945
  H 2.394702 -0.640186 -1.552276
  H 5.061929 -0.079212 -0.150903
  H 5.095720 -2.365330 -3.501997
  H 5.099973 -0.752928 -4.150270
  H 2.659183 -0.531967 -3.668475
  H 2.654975 -2.180604 -3.005947
 28
 0.087869
  C 0.954765 0.340934 0.335982
  C 2.421595 0.222271 0.364544
  C 3.212479 0.571095 1.562536
  C 2.458963 1.068333 2.792412
  C 3.431071 1.355299 3.934604
  C 3.035262 -0.246989 -0.795038
  C 4.412003 -0.219463 -1.049877
  C 5.070858 -0.656937 -2.173978
  C 4.625336 -1.366218 -3.379475
  C 3.169099 -1.752841 -3.573358
  H 3.070544 -2.302239 -4.506621
  H 6.137613 -0.464754 -2.184985
  H 0.546059 0.822349 1.215588
  H 0.505965 -0.648023 0.235967
  H 0.653239 0.890831 -0.556338
  H 3.953883 1.327955 1.281282
  H 3.802922 -0.307066 1.848560
  H 1.740417 0.317150 3.125024
  H 1.915674 1.985765 2.557830
  H 3.976275 0.456698 4.218348
  H 2.892362 1.711262 4.810457
  H 4.152308 2.119967 3.650823
  H 2.379216 -0.611719 -1.566590
  H 5.037797 0.241909 -0.298686
  H 5.249814 -2.269270 -3.444469
  H 4.961922 -0.768201 -4.238124
  H 2.532714 -0.875308 -3.644230
  H 2.821746 -2.397717 -2.771233
 28
 1.729390
  C 0.976181 0.493364 0.282673
  C 2.421352 0.229264 0.366823
  C 3.199121 0.479363 1.591632
  C 2.470225 1.086177 2.787438
  C 3.421541 1.243989 3.966728
  C 3.034416 -0.258165 -0.788781
  C 4.382140 -0.103865 -1.113630
  C 5.024226 -0.496499 -2.264507
  C 4.608772 -1.331822 -3.397485
  C 3.218976 -1.943307 -3.448218
  H 3.142686 -2.574307 -4.328998
  H 6.045216 -0.147646 -2.364944
  H 0.585346 1.005814 1.154090
  H 0.424399 -0.439674 0.140663
  H 0.790067 1.088162 -0.611642
  H 4.056778 1.114055 1.341543
  H 3.647186 -0.472247 1.901493
  H 1.641839 0.446382 3.091137
  H 2.070881 2.067802 2.526342
  H 3.820820 0.281542 4.276982
  H 2.902963 1.680487 4.814911
  H 4.253615 1.894727 3.711650
  H 2.378206 -0.690651 -1.528061
  H 4.986798 0.470114 -0.419608
  H 5.357389 -2.133827 -3.464427
  H 4.784170 -0.745293 -4.308484
  H 2.452275 -1.178122 -3.532381
  H 3.028533 -2.563443 -2.576799
 28
 3.761216
  C 0.990852 0.620345 0.245265
  C 2.402172 0.230259 0.363548
  C 3.177550 0.421903 1.603167
  C 2.487942 1.097459 2.782184
  C 3.432500 1.175791 3.977451
  C 3.013731 -0.289741 -0.779531
  C 4.325200 -0.017738 -1.171795
  C 4.975176 -0.405820 -2.319154
  C 4.604682 -1.319739 -3.405445
  C 3.278557 -2.059683 -3.378248
  H 3.224924 -2.720756 -4.238681
  H 5.950910 0.039608 -2.469884
  H 0.628584 1.149397 1.118396
  H 0.356186 -0.251455 0.069577
  H 0.887451 1.251745 -0.637964
  H 4.100122 0.962557 1.366325
  H 3.526876 -0.567434 1.923664
  H 1.600030 0.536021 3.076661
  H 2.182631 2.109669 2.507521
  H 3.739258 0.181819 4.298136
  H 2.940873 1.662499 4.816887
  H 4.325179 1.748791 3.733037
  H 2.368983 -0.814232 -1.470401
  H 4.880525 0.656714 -0.532303
  H 5.422287 -2.050787 -3.467197
  H 4.691388 -0.758249 -4.344759
  H 2.439403 -1.372758 -3.448299
  H 3.185164 -2.668110 -2.482938
 28
 7.477522
  C 1.021455 0.801486 0.200957
  C 2.378556 0.264324 0.355684
  C 3.141752 0.346595 1.608501
  C 2.523394 1.115358 2.772595
  C 3.438796 1.060154 3.993317
  C 2.974391 -0.282689 -0.790338
  C 4.238886 0.083870 -1.249754
  C 4.874518 -0.275040 -2.412186
  C 4.583273 -1.305332 -3.416328
  C 3.389289 -2.229889 -3.240819
  H 3.386307 -2.961434 -4.045848
  H 5.763016 0.296663 -2.649681
  H 0.688503 1.358510 1.065963
  H 0.300162 0.011536 -0.015352
  H 1.041623 1.445315 -0.679687
  H 4.140974 0.747105 1.389653
  H 3.340035 -0.684289 1.930971
  H 1.557379 0.685659 3.040791
  H 2.372062 2.159359 2.492890
  H 3.587838 0.034064 4.323311
  H 3.002742 1.618054 4.818616
  H 4.411618 1.494276 3.771752
  H 2.348451 -0.909014 -1.411188
  H 4.746701 0.841406 -0.663814
  H 5.497686 -1.908204 -3.500616
  H 4.511688 -0.799260 -4.387243
  H 2.452058 -1.682361 -3.300439
  H 3.444742 -2.770096 -2.299349
 28
 12.644803
  C 1.109264 0.915533 0.145516
  C 2.396521 0.249735 0.375772
  C 3.129247 0.299583 1.646869
  C 2.542343 1.133721 2.780809
  C 3.416221 1.027455 4.026527
  C 3.003569 -0.355925 -0.748176
  C 4.178952 0.127702 -1.304659
  C 4.799175 -0.228540 -2.477822
  C 4.534472 -1.301856 -3.448836
  C 3.415334 -2.299818 -3.194794
  H 3.415541 -3.041761 -3.989708
  H 5.629425 0.401208 -2.770473
  H 0.796624 1.528424 0.981279
  H 0.319125 0.199157 -0.085583
  H 1.239793 1.519543 -0.755329
  H 4.162685 0.611721 1.445068
  H 3.238571 -0.737696 1.989958
  H 1.538537 0.786036 3.026563
  H 2.482378 2.181236 2.481333
  H 3.474985 -0.000669 4.375889
  H 3.003606 1.631433 4.830400
  H 4.425222 1.379940 3.825872
  H 2.416805 -1.091480 -1.280228
  H 4.639801 0.952366 -0.773025
  H 5.481882 -1.844221 -3.564963
  H 4.378813 -0.824519 -4.424439
  H 2.442974 -1.815218 -3.206709
  H 3.560718 -2.822028 -2.252828
 28
 18.759232
  C 1.205362 1.125471 0.109976
  C 2.428761 0.364377 0.350658
  C 3.118180 0.297288 1.644485
  C 2.556440 1.119443 2.802198
  C 3.380621 0.890923 4.065327
  C 3.019030 -0.288047 -0.776884
  C 4.095499 0.246383 -1.449162
  C 4.710339 -0.178509 -2.606271
  C 4.497846 -1.361127 -3.464856
  C 3.466258 -2.408452 -3.070706
  H 3.485928 -3.216797 -3.799306
  H 5.483820 0.478278 -2.985997
  H 0.929184 1.764560 0.941970
  H 0.365303 0.458023 -0.110553
  H 1.362434 1.703544 -0.800890
  H 4.179296 0.542061 1.486510
  H 3.147489 -0.762300 1.936087
  H 1.523215 0.835106 3.001022
  H 2.582064 2.181056 2.554045
  H 3.353028 -0.154060 4.366151
  H 2.987764 1.486090 4.885565
  H 4.418228 1.176478 3.911057
  H 2.509989 -1.162847 -1.153339
  H 4.497598 1.161236 -1.029032
  H 5.477129 -1.843551 -3.573727
  H 4.265454 -0.989578 -4.471526
  H 2.462718 -1.993431 -3.074147
  H 3.692962 -2.835905 -2.097062
 28
 24.637156
  C 1.365329 1.289890 0.064681
  C 2.498673 0.426505 0.350454
  C 3.113616 0.287454 1.664698
  C 2.557091 1.122818 2.813720
  C 3.309396 0.817600 4.105377
  C 3.102641 -0.261832 -0.769242
  C 4.059843 0.324949 -1.565920
  C 4.639500 -0.150493 -2.726562
  C 4.428868 -1.386753 -3.507910
  C 3.454502 -2.443383 -3.007326
  H 3.461803 -3.285656 -3.696454
  H 5.372160 0.506153 -3.178629
  H 1.106818 1.951439 0.883047
  H 0.493507 0.669702 -0.168451
  H 1.552063 1.839653 -0.860537
  H 4.193311 0.462023 1.552095
  H 3.068190 -0.776283 1.939737
  H 1.499123 0.904701 2.962888
  H 2.663422 2.184785 2.589152
  H 3.200787 -0.227742 4.383572
  H 2.921300 1.422958 4.920604
  H 4.369077 1.036590 4.001039
  H 2.680903 -1.222017 -1.025903
  H 4.426718 1.287848 -1.231313
  H 5.416440 -1.846938 -3.641465
  H 4.132918 -1.077170 -4.518513
  H 2.438708 -2.058047 -2.974157
  H 3.748744 -2.816863 -2.030183
 28
 16.485630
  C 1.580592 1.477216 0.035322
  C 2.629754 0.503850 0.333605
  C 3.135861 0.249710 1.688459
  C 2.550372 1.076615 2.828459
  C 3.180788 0.670584 4.156103
  C 3.211388 -0.198197 -0.758423
  C 4.009180 0.410526 -1.719098
  C 4.522898 -0.144935 -2.867779
  C 4.321129 -1.449549 -3.519665
  C 3.443196 -2.509795 -2.865503
  H 3.437497 -3.399668 -3.493781
  H 5.191631 0.495686 -3.430223
  H 1.378838 2.164924 0.846731
  H 0.665283 0.909009 -0.167391
  H 1.770704 1.997338 -0.901810
  H 4.225699 0.365296 1.662005
  H 2.997816 -0.817019 1.918226
  H 1.473153 0.926665 2.889561
  H 2.743381 2.135201 2.661006
  H 2.983089 -0.375231 4.378886
  H 2.772887 1.268898 4.966373
  H 4.257328 0.820047 4.138291
  H 2.956834 -1.243933 -0.855047
  H 4.305265 1.429184 -1.510045
  H 5.319011 -1.872487 -3.696854
  H 3.936326 -1.233114 -4.525861
  H 2.414629 -2.167845 -2.771154
  H 3.834492 -2.801671 -1.894067
 28
 9.020689
  C 1.816209 1.637047 0.010309
  C 2.759410 0.562759 0.322847
  C 3.146959 0.216733 1.699083
  C 2.554081 1.057200 2.823459
  C 3.048450 0.559189 4.177267
  C 3.330737 -0.144331 -0.742392
  C 3.956642 0.461428 -1.831979
  C 4.394977 -0.139620 -2.986499
  C 4.196659 -1.488005 -3.543457
  C 3.452797 -2.551738 -2.751036
  H 3.412139 -3.465488 -3.339925
  H 4.966674 0.497213 -3.650370
  H 1.685861 2.354977 0.811238
  H 0.845166 1.162799 -0.167453
  H 2.056093 2.109593 -0.938599
  H 4.240377 0.245088 1.754948
  H 2.899405 -0.837340 1.879444
  H 1.465748 1.001172 2.802314
  H 2.848861 2.101346 2.708940
  H 2.746306 -0.471069 4.348323
  H 2.635252 1.167136 4.977487
  H 4.132288 0.613617 4.240172
  H 3.264641 -1.219901 -0.710303
  H 4.191618 1.511804 -1.716762
  H 5.188686 -1.869907 -3.815489
  H 3.694165 -1.341933 -4.508997
  H 2.430860 -2.246440 -2.542572
  H 3.969322 -2.789052 -1.825048
 28
 7.733492
  C 1.978711 1.525881 -0.069157
  C 2.912602 0.471895 0.355619
  C 3.164894 0.147845 1.774459
  C 2.557981 1.088560 2.813016
  C 2.886865 0.616927 4.224376
  C 3.593370 -0.223666 -0.642996
  C 4.019099 0.425961 -1.807281
  C 4.306857 -0.087115 -3.036171
  C 4.011079 -1.405452 -3.619408
  C 3.489352 -2.521273 -2.728605
  H 3.326772 -3.411620 -3.330188
  H 4.714609 0.608713 -3.755876
  H 1.808885 2.306338 0.667898
  H 1.021625 1.039949 -0.275035
  H 2.283206 1.900645 -1.050152
  H 4.247030 0.065242 1.927957
  H 2.769298 -0.865686 1.955377
  H 1.472891 1.130789 2.695787
  H 2.956982 2.096193 2.678385
  H 2.471377 -0.373038 4.412536
  H 2.470783 1.302973 4.960663
  H 3.966906 0.571258 4.378885
  H 3.735018 -1.288863 -0.533492
  H 4.271781 1.463979 -1.663222
  H 4.921377 -1.743053 -4.129317
  H 3.304890 -1.233881 -4.441755
  H 2.541564 -2.249135 -2.271858
  H 4.209863 -2.776744 -1.956720
