 13
 0.000000
  C 0.982900 0.144855 0.413146
  C 2.425010 0.103854 0.311300
  H 3.022814 0.441378 1.151626
  C 3.081397 -0.350875 -0.821269
  C 4.484420 -0.389796 -0.920686
  C 5.117505 -0.839177 -2.039750
  H 4.561635 -1.184807 -2.899405
  H 6.192246 -0.865292 -2.105412
  H 0.629739 0.527640 1.366673
  H 0.558239 -0.851201 0.220263
  H 0.558570 0.731597 -0.414816
  H 2.500849 -0.692486 -1.670157
  H 5.067120 -0.049188 -0.074273
 13
 10.869499
  C 0.899854 0.152169 0.431341
  C 2.461412 0.104881 0.313909
  H 3.057083 0.441055 1.150876
  C 3.098750 -0.350187 -0.819513
  C 4.504198 -0.394182 -0.931689
  C 5.121681 -0.846054 -2.056897
  H 4.561777 -1.189474 -2.911012
  H 6.335306 -0.879645 -2.141178
  H 0.563137 0.535078 1.385217
  H 0.482670 -0.841308 0.243702
  H 0.483047 0.740671 -0.390995
  H 2.508108 -0.689394 -1.662425
  H 5.096525 -0.055864 -0.091044
 13
 33.839067
  C 0.836553 0.152864 0.432998
  C 2.484329 0.110421 0.327656
  H 3.042688 0.452761 1.179961
  C 3.094059 -0.347379 -0.812572
  C 4.504617 -0.397038 -0.938883
  C 5.092183 -0.851567 -2.070776
  H 4.551209 -1.196422 -2.928561
  H 6.480395 -0.891497 -2.170440
  H 0.538975 0.538535 1.393711
  H 0.470343 -0.856074 0.255774
  H 0.470646 0.759515 -0.392438
  H 2.492337 -0.682270 -1.644748
  H 5.107241 -0.062542 -0.107541
 13
 60.411308
  C 0.785821 0.154869 0.437723
  C 2.503380 0.114493 0.338391
  H 3.033350 0.462929 1.205863
  C 3.092342 -0.346462 -0.809532
  C 4.496534 -0.401772 -0.950667
  C 5.052103 -0.853226 -2.075044
  H 4.535815 -1.202646 -2.944371
  H 6.630934 -0.898250 -2.187771
  H 0.519789 0.543310 1.405130
  H 0.465769 -0.865257 0.263591
  H 0.466163 0.771742 -0.393361
  H 2.476994 -0.678889 -1.635449
  H 5.110092 -0.069983 -0.126481
 13
 83.706925
  C 0.856457 0.158376 0.459316
  C 2.422603 0.107552 0.321581
  H 2.992679 0.453111 1.174174
  C 2.995946 -0.346089 -0.818243
  C 4.429293 -0.394962 -0.981409
  C 4.986721 -0.846399 -2.088089
  H 4.575013 -1.210449 -3.015205
  H 6.976330 -0.927166 -2.135312
  H 0.592213 0.547181 1.428920
  H 0.481646 -0.845177 0.310436
  H 0.471422 0.777540 -0.340145
  H 2.379068 -0.689550 -1.640052
  H 5.027713 -0.051560 -0.144233
 13
 95.155211
  C 0.868866 0.155360 0.481648
  C 2.408138 0.080473 0.309033
  H 2.997904 0.430670 1.138273
  C 2.948256 -0.361708 -0.826716
  C 4.392546 -0.346832 -1.039819
  C 4.937681 -0.808096 -2.121833
  H 4.642135 -1.145807 -3.084875
  H 7.196591 -1.053680 -2.019597
  H 0.639277 0.558279 1.459324
  H 0.464548 -0.843098 0.370498
  H 0.450595 0.787738 -0.292222
  H 2.335504 -0.740417 -1.627618
  H 4.970060 0.019169 -0.201264
 13
 100.758880
  C 0.883146 0.160714 0.508341
  C 2.384385 0.081479 0.301793
  H 2.992530 0.431330 1.119558
  C 2.897719 -0.365465 -0.838681
  C 4.353413 -0.372406 -1.074124
  C 4.885628 -0.816556 -2.148112
  H 4.727726 -1.155960 -3.151949
  H 7.435723 -1.041375 -1.942753
  H 0.683537 0.566497 1.487579
  H 0.456050 -0.836322 0.430099
  H 0.448386 0.811051 -0.249857
  H 2.276302 -0.725828 -1.635250
  H 4.926262 -0.014041 -0.228582
 13
 102.776179
  C 0.895635 0.174151 0.563978
  C 2.375884 0.091421 0.285938
  H 3.029753 0.426658 1.076080
  C 2.850489 -0.356431 -0.871449
  C 4.297357 -0.399583 -1.148843
  C 4.833656 -0.831401 -2.217778
  H 4.923280 -1.178063 -3.208197
  H 7.632903 -1.025413 -1.794498
  H 0.718952 0.575839 1.567218
  H 0.449974 -0.815016 0.493028
  H 0.414455 0.818596 -0.160335
  H 2.199997 -0.710213 -1.660991
  H 4.871310 -0.049831 -0.297490
 13
 104.139549
  C 0.914620 0.186717 0.603475
  C 2.365658 0.096666 0.289070
  H 3.042959 0.419057 1.057214
  C 2.810513 -0.357212 -0.880989
  C 4.244677 -0.439739 -1.194174
  C 4.798595 -0.850052 -2.255481
  H 5.034473 -1.189128 -3.237898
  H 7.864288 -0.982954 -1.696244
  H 0.760509 0.585233 1.607786
  H 0.451017 -0.792864 0.536999
  H 0.415273 0.834388 -0.111916
  H 2.142431 -0.689211 -1.652131
  H 4.845597 -0.100311 -0.349483
 13
 104.975441
  C 0.922316 0.200230 0.640874
  C 2.374280 0.088646 0.296463
  H 3.071651 0.401098 1.056776
  C 2.790839 -0.363858 -0.885610
  C 4.210474 -0.452564 -1.245699
  C 4.784695 -0.853217 -2.296229
  H 5.135550 -1.191871 -3.241776
  H 8.080982 -0.966824 -1.600425
  H 0.790116 0.597418 1.648034
  H 0.443277 -0.767821 0.581038
  H 0.416963 0.856104 -0.065740
  H 2.095641 -0.693322 -1.642096
  H 4.829201 -0.121033 -0.414505
 13
 104.636648
  C 0.963003 0.211685 0.682212
  C 2.377034 0.090413 0.301491
  H 3.107567 0.390053 1.049771
  C 2.751113 -0.362005 -0.896717
  C 4.139983 -0.484960 -1.316407
  C 4.753814 -0.875965 -2.343598
  H 5.260565 -1.190727 -3.221714
  H 8.299516 -0.926959 -1.444373
  H 0.863194 0.596173 1.693238
  H 0.473760 -0.750196 0.625203
  H 0.435850 0.882103 -0.004694
  H 2.025518 -0.674144 -1.638803
  H 4.802830 -0.152425 -0.505928
 13
 104.106636
  C 0.998498 0.219743 0.737551
  C 2.398766 0.096256 0.303990
  H 3.152501 0.413470 1.013260
  C 2.729419 -0.350169 -0.912649
  C 4.078029 -0.499970 -1.399256
  C 4.751054 -0.869064 -2.390384
  H 5.380245 -1.158849 -3.203919
  H 8.493617 -0.932400 -1.236025
  H 0.930587 0.613443 1.745428
  H 0.505052 -0.751017 0.707965
  H 0.449521 0.872044 0.066983
  H 1.975330 -0.678753 -1.615015
  H 4.809610 -0.181556 -0.630890
 13
 103.641257
  C 1.023045 0.179832 0.788354
  C 2.411906 0.078453 0.314739
  H 3.180719 0.386415 1.005642
  C 2.722659 -0.332261 -0.921334
  C 4.048459 -0.463325 -1.430507
  C 4.787425 -0.801997 -2.387179
  H 5.442904 -0.977262 -3.196753
  H 8.759374 -0.997340 -1.107237
  H 0.973960 0.543200 1.812350
  H 0.535404 -0.788312 0.746756
  H 0.442477 0.847740 0.145845
  H 1.961455 -0.660315 -1.605421
  H 4.856698 -0.182670 -0.682940
 13
 102.910220
  C 1.066299 0.211197 0.836925
  C 2.437724 0.054425 0.331505
  H 3.235910 0.366986 0.991643
  C 2.709129 -0.370554 -0.910829
  C 4.004911 -0.499288 -1.460833
  C 4.821214 -0.807279 -2.360180
  H 5.531892 -0.942741 -3.135790
  H 9.021970 -0.996866 -0.938232
  H 1.053107 0.588566 1.855351
  H 0.542424 -0.741820 0.821574
  H 0.494189 0.887004 0.198186
  H 1.919267 -0.693839 -1.573436
  H 4.909364 -0.218892 -0.816170
