 15
 0.000000
  C 0.882120 0.047888 0.340998
  C 2.352947 0.056846 0.049149
  H 2.992708 0.005064 0.919543
  C 2.935447 0.124999 -1.139533
  C 2.371878 0.207771 -2.532341
  C 0.863686 0.215112 -2.747367
  H 0.659918 0.278168 -3.813754
  H 4.018807 0.134438 -1.179075
  H 0.701676 -0.011185 1.411769
  H 0.394542 -0.807010 -0.121582
  H 0.415454 0.957996 -0.028252
  H 2.792564 -0.634598 -3.094567
  H 2.786741 1.114532 -2.988789
  H 0.398625 1.070355 -2.266461
  H 0.405688 -0.695098 -2.371856
 15
 -0.184617
  C 0.869684 0.033906 0.362884
  C 2.329942 0.006447 0.027181
  H 2.979257 -0.110993 0.886376
  C 2.918766 0.118516 -1.153958
  C 2.381630 0.253182 -2.550761
  C 0.873755 0.234843 -2.765337
  H 0.664410 0.254620 -3.833777
  H 4.004139 0.099141 -1.165154
  H 0.739286 0.209603 1.428395
  H 0.393680 -0.915669 0.120528
  H 0.358994 0.824064 -0.177995
  H 2.823410 -0.564289 -3.132852
  H 2.786962 1.180970 -2.970936
  H 0.399555 1.103719 -2.318612
  H 0.431530 -0.665686 -2.349934
 15
 0.474654
  C 0.877410 0.044555 0.372862
  C 2.329689 -0.078470 0.033154
  H 2.970808 -0.302603 0.877234
  C 2.912627 0.116401 -1.139049
  C 2.375033 0.306726 -2.531506
  C 0.874424 0.220718 -2.780477
  H 0.691342 0.246022 -3.853876
  H 3.998021 0.096433 -1.172334
  H 0.778940 0.441203 1.382486
  H 0.369169 -0.918084 0.339524
  H 0.397619 0.737718 -0.307533
  H 2.861305 -0.464694 -3.140387
  H 2.742401 1.268567 -2.907342
  H 0.342761 1.058707 -2.338872
  H 0.468280 -0.707142 -2.387518
 15
 2.530024
  C 0.881918 0.056621 0.378323
  C 2.318047 -0.163690 0.028650
  H 2.939020 -0.515612 0.843874
  C 2.904248 0.135075 -1.121327
  C 2.367713 0.367793 -2.511294
  C 0.882390 0.187690 -2.800586
  H 0.725910 0.233272 -3.877539
  H 3.989818 0.138646 -1.173577
  H 0.846705 0.648004 1.295178
  H 0.338649 -0.868324 0.558894
  H 0.416458 0.648042 -0.400028
  H 2.910836 -0.349752 -3.137688
  H 2.679328 1.363383 -2.847562
  H 0.277927 0.971599 -2.352269
  H 0.533985 -0.778561 -2.445457
 15
 9.329055
  C 0.895307 0.098619 0.353963
  C 2.314974 -0.236110 0.018083
  H 2.885391 -0.785370 0.755247
  C 2.894317 0.214948 -1.083841
  C 2.351087 0.415910 -2.480870
  C 0.888735 0.114951 -2.789439
  H 0.739725 0.178957 -3.867468
  H 3.979729 0.259489 -1.169443
  H 0.917997 0.724085 1.252844
  H 0.251796 -0.750447 0.546824
  H 0.550409 0.766901 -0.423783
  H 2.951885 -0.271712 -3.084672
  H 2.588800 1.428728 -2.830743
  H 0.201989 0.821391 -2.322164
  H 0.629439 -0.890699 -2.466299
 15
 20.974915
  C 0.912935 0.127487 0.344952
  C 2.299610 -0.314332 -0.010742
  H 2.842453 -0.988290 0.636574
  C 2.855415 0.292500 -1.056935
  C 2.336812 0.445695 -2.473726
  C 0.894298 0.056356 -2.783121
  H 0.748904 0.073766 -3.862327
  H 3.943967 0.379468 -1.119015
  H 0.990605 0.776010 1.226399
  H 0.176953 -0.641148 0.537598
  H 0.719149 0.870563 -0.431821
  H 2.986804 -0.218309 -3.051217
  H 2.510204 1.466914 -2.833229
  H 0.169772 0.730403 -2.337549
  H 0.690453 -0.949428 -2.425544
 15
 38.540071
  C 0.937205 0.112348 0.288285
  C 2.327532 -0.338134 0.002187
  H 2.816044 -1.146462 0.522104
  C 2.839175 0.363433 -1.018104
  C 2.316584 0.446776 -2.439709
  C 0.877966 0.040065 -2.743696
  H 0.746241 -0.003390 -3.825833
  H 3.927139 0.497284 -1.110222
  H 0.973012 0.835834 1.120389
  H 0.166009 -0.618676 0.520242
  H 0.903417 0.909771 -0.482569
  H 2.976922 -0.228030 -2.990140
  H 2.503633 1.446265 -2.864449
  H 0.152199 0.752723 -2.352132
  H 0.661039 -0.943852 -2.326791
 15
 64.357693
  C 0.970930 0.136400 0.317090
  C 2.294389 -0.422145 -0.023018
  H 2.779283 -1.271858 0.437962
  C 2.784854 0.381845 -1.007800
  C 2.310870 0.421204 -2.450389
  C 0.873264 0.010758 -2.740090
  H 0.716365 -0.013303 -3.816661
  H 3.864670 0.612046 -1.027496
  H 0.974722 0.963183 1.032886
  H 0.159072 -0.547807 0.516311
  H 1.182135 0.942724 -0.524348
  H 2.985844 -0.239979 -2.998497
  H 2.458501 1.436512 -2.837373
  H 0.158795 0.710940 -2.313580
  H 0.667946 -0.975682 -2.332568
 15
 81.016594
  C 0.988813 0.103235 0.336170
  C 2.233063 -0.456824 -0.033280
  H 2.692148 -1.354855 0.353913
  C 2.752335 0.442698 -0.989684
  C 2.297403 0.449277 -2.454670
  C 0.872169 -0.007074 -2.728972
  H 0.707370 -0.058696 -3.803163
  H 3.832909 0.643127 -0.977808
  H 0.992790 0.966778 0.990154
  H 0.131355 -0.536114 0.562615
  H 1.483600 1.056256 -0.622741
  H 2.978995 -0.220697 -2.991612
  H 2.446920 1.450493 -2.868900
  H 0.142469 0.680461 -2.305258
  H 0.700188 -0.993184 -2.304511
 15
 63.822197
  C 0.972847 0.075569 0.421242
  C 2.138127 -0.461272 -0.034075
  H 2.589312 -1.380662 0.307413
  C 2.720316 0.495982 -0.992432
  C 2.295072 0.465842 -2.486998
  C 0.872844 -0.025034 -2.738552
  H 0.662441 -0.013562 -3.804118
  H 3.787808 0.677242 -0.924986
  H 0.951252 0.998218 0.970173
  H 0.123323 -0.577198 0.667631
  H 1.750628 1.122480 -0.719525
  H 2.978767 -0.226549 -3.007332
  H 2.442182 1.459881 -2.910872
  H 0.138204 0.605576 -2.236315
  H 0.752708 -1.042196 -2.374678
 15
 35.812034
  C 0.961464 -0.063729 0.457434
  C 2.107676 -0.440844 -0.112813
  H 2.613078 -1.377747 0.065417
  C 2.671832 0.638307 -0.985220
  C 2.325033 0.399011 -2.469323
  C 0.874776 0.014802 -2.733400
  H 0.728348 -0.162604 -3.796460
  H 3.736253 0.804224 -0.902246
  H 0.922734 0.851034 0.996856
  H 0.179314 -0.727634 0.816629
  H 1.868950 1.362820 -0.727138
  H 2.986381 -0.359951 -2.895548
  H 2.558601 1.328272 -3.007655
  H 0.198719 0.813263 -2.426256
  H 0.605971 -0.891244 -2.187496
 15
 18.696670
  C 0.947413 -0.074927 0.488031
  C 2.054106 -0.433616 -0.148969
  H 2.549261 -1.389496 0.008119
  C 2.684807 0.629165 -0.994029
  C 2.327630 0.438796 -2.480824
  C 0.895947 -0.001676 -2.729489
  H 0.728551 -0.129232 -3.796723
  H 3.758160 0.722963 -0.901323
  H 0.817824 0.922433 0.883341
  H 0.225168 -0.761087 0.914419
  H 2.040168 1.475311 -0.709102
  H 2.985798 -0.329327 -2.899460
  H 2.543558 1.363246 -3.014340
  H 0.191176 0.737944 -2.354744
  H 0.693310 -0.949288 -2.237545
 15
 7.006452
  C 0.985335 -0.134343 0.597748
  C 2.031196 -0.421990 -0.149619
  H 2.540921 -1.372749 -0.078708
  C 2.638405 0.653228 -1.002402
  C 2.354904 0.392139 -2.495719
  C 0.898019 0.059772 -2.784991
  H 0.764766 -0.143105 -3.845547
  H 3.712550 0.753523 -0.865125
  H 0.751143 0.874565 0.894434
  H 0.378514 -0.879517 1.090711
  H 2.052888 1.538278 -0.736732
  H 2.990089 -0.423116 -2.852561
  H 2.634490 1.290857 -3.050413
  H 0.253226 0.892455 -2.511373
  H 0.581857 -0.815397 -2.223787
 15
 -0.418756
  C 0.986563 -0.199730 0.626158
  C 2.062597 -0.385126 -0.116215
  H 2.598859 -1.324547 -0.085791
  C 2.622317 0.674040 -1.010432
  C 2.356953 0.351830 -2.490206
  C 0.880757 0.129723 -2.789591
  H 0.741793 -0.116985 -3.839889
  H 3.697078 0.783087 -0.862628
  H 0.537497 0.770570 0.758285
  H 0.546654 -1.005523 1.191520
  H 2.095394 1.595990 -0.768194
  H 2.925374 -0.536753 -2.775994
  H 2.724223 1.185183 -3.094036
  H 0.307682 1.027702 -2.568601
  H 0.484562 -0.684864 -2.188470
 15
 -2.067876
  C 1.060984 -0.231476 0.766710
  C 2.031540 -0.384050 -0.114048
  H 2.521292 -1.342165 -0.228786
  C 2.526115 0.699908 -1.019455
  C 2.366969 0.312224 -2.492358
  C 0.901219 0.171911 -2.879963
  H 0.804912 -0.068057 -3.936483
  H 3.581687 0.890380 -0.808047
  H 0.563212 0.715769 0.895488
  H 0.728698 -1.035263 1.401665
  H 1.961707 1.612711 -0.818475
  H 2.884738 -0.633426 -2.674083
  H 2.838445 1.073781 -3.117833
  H 0.368653 1.100566 -2.687353
  H 0.428132 -0.618216 -2.301062
