 25
 0.000000
  H 1.433963 0.164025 0.462978
  C 2.512877 0.148355 0.421841
  C 3.268934 0.617713 1.586904
  C 2.418085 1.087851 2.757803
  H 3.047027 1.417442 3.575798
  C 3.076385 -0.321421 -0.747316
  C 4.458170 -0.417867 -0.988498
  C 5.099519 -0.870949 -2.118052
  C 4.607521 -1.385362 -3.401448
  C 3.121106 -1.505618 -3.703685
  C 2.904178 -2.068010 -5.106706
  H 6.181062 -0.860830 -2.092283
  H 3.931969 1.434086 1.274684
  H 3.933520 -0.186291 1.926517
  H 1.779060 0.283752 3.117449
  H 1.777502 1.916009 2.460978
  H 2.393972 -0.632724 -1.521072
  H 5.103562 -0.093909 -0.181568
  H 5.073985 -2.371864 -3.533232
  H 5.075125 -0.763838 -4.178149
  H 2.644404 -0.525398 -3.650242
  H 2.643361 -2.176917 -2.988096
  H 3.345425 -1.420455 -5.860858
  H 1.841073 -2.151938 -5.317691
  H 3.344507 -3.057631 -5.204460
 25
 10.486127
  H 1.406120 0.201339 0.555742
  C 2.483061 0.183761 0.509828
  C 3.243618 0.646452 1.658408
  C 2.399411 1.118022 2.833110
  H 3.034511 1.446562 3.648575
  C 3.103023 -0.341632 -0.797854
  C 4.470951 -0.436124 -1.034137
  C 5.110275 -0.888823 -2.162633
  C 4.618032 -1.402643 -3.444466
  C 3.130932 -1.522157 -3.744933
  C 2.912257 -2.084501 -5.147721
  H 6.192815 -0.877906 -2.134797
  H 3.908155 1.460203 1.340796
  H 3.909765 -0.159402 1.992198
  H 1.760930 0.315722 3.196625
  H 1.759329 1.947558 2.540435
  H 2.416445 -0.650139 -1.564694
  H 5.116389 -0.112108 -0.226986
  H 5.084798 -2.388936 -3.577294
  H 5.085993 -0.782092 -4.221801
  H 2.654877 -0.541515 -3.690782
  H 2.653788 -2.193215 -3.028510
  H 3.353129 -1.437149 -5.902301
  H 1.848950 -2.168093 -5.357903
  H 3.352182 -3.074301 -5.245857
 25
 31.303584
  H 1.374359 0.237458 0.645915
  C 2.446440 0.219311 0.598429
  C 3.223203 0.665497 1.705729
  C 2.399448 1.142701 2.894678
  H 3.052373 1.466867 3.699059
  C 3.114773 -0.362969 -0.850965
  C 4.454141 -0.446962 -1.061227
  C 5.106195 -0.899788 -2.189921
  C 4.625723 -1.415079 -3.475319
  C 3.139190 -1.537508 -3.783259
  C 2.929412 -2.100226 -5.186962
  H 6.189096 -0.883037 -2.147515
  H 3.892536 1.471798 1.371917
  H 3.894377 -0.146054 2.022634
  H 1.762624 0.345465 3.270792
  H 1.760826 1.977179 2.614676
  H 2.416363 -0.664550 -1.600425
  H 5.091320 -0.119975 -0.246839
  H 5.096997 -2.399450 -3.606547
  H 5.098297 -0.794934 -4.250203
  H 2.661250 -0.557316 -3.731368
  H 2.660071 -2.209726 -3.068815
  H 3.373507 -1.451781 -5.938867
  H 1.867527 -2.186430 -5.403798
  H 3.372473 -3.088994 -5.282382
 25
 54.220355
  H 1.304654 0.272604 0.732713
  C 2.378832 0.254372 0.685116
  C 3.196560 0.694681 1.778457
  C 2.404746 1.180575 2.989686
  H 3.081489 1.497583 3.776814
  C 3.089630 -0.385475 -0.908199
  C 4.452022 -0.464145 -1.104880
  C 5.116790 -0.917563 -2.234611
  C 4.644686 -1.433540 -3.521286
  C 3.159083 -1.557107 -3.832123
  C 2.952942 -2.120181 -5.236137
  H 6.198495 -0.896330 -2.180818
  H 3.870280 1.491753 1.427194
  H 3.872046 -0.122458 2.075978
  H 1.770310 0.389794 3.382658
  H 1.768571 2.022233 2.726710
  H 2.368057 -0.680622 -1.641937
  H 5.084671 -0.135784 -0.286973
  H 5.118388 -2.416906 -3.651622
  H 5.119818 -0.813811 -4.295000
  H 2.680919 -0.577224 -3.781133
  H 2.679654 -2.229523 -3.118366
  H 3.398540 -1.471378 -5.986827
  H 1.891831 -2.207588 -5.455963
  H 3.397473 -3.108433 -5.330134
 25
 74.881608
  H 1.183971 0.280930 0.752576
  C 2.259181 0.272381 0.729559
  C 3.174177 0.690461 1.768680
  C 2.491772 1.201088 3.041344
  H 3.242166 1.494106 3.769922
  C 2.996447 -0.427195 -1.013406
  C 4.360302 -0.474013 -1.130760
  C 5.078725 -0.908597 -2.213237
  C 4.662050 -1.428467 -3.508730
  C 3.183968 -1.564187 -3.849639
  C 3.008118 -2.128369 -5.255731
  H 6.153051 -0.863439 -2.100027
  H 3.861775 1.457276 1.372045
  H 3.863008 -0.136651 2.012265
  H 1.869654 0.429513 3.486413
  H 1.868531 2.065455 2.829511
  H 2.214155 -0.699942 -1.691893
  H 4.951082 -0.136889 -0.291255
  H 5.151097 -2.405761 -3.627683
  H 5.152480 -0.805632 -4.270250
  H 2.700516 -0.587386 -3.805809
  H 2.699227 -2.239079 -3.142976
  H 3.464628 -1.476166 -5.996986
  H 1.952713 -2.224564 -5.497352
  H 3.463503 -3.112585 -5.340219
 25
 94.802775
  H 1.135328 0.317636 0.842486
  C 2.205406 0.310278 0.824138
  C 3.141389 0.702915 1.801603
  C 2.520390 1.226296 3.103326
  H 3.306589 1.505824 3.800071
  C 2.973284 -0.448692 -1.066261
  C 4.318791 -0.483010 -1.153348
  C 5.080832 -0.917596 -2.236795
  C 4.685026 -1.440382 -3.539219
  C 3.210423 -1.578544 -3.884797
  C 3.036477 -2.143361 -5.292646
  H 6.152078 -0.862356 -2.099658
  H 3.825373 1.454826 1.370567
  H 3.825049 -0.138520 2.010893
  H 1.902984 0.465199 3.572881
  H 1.903847 2.101233 2.915465
  H 2.159685 -0.703448 -1.700206
  H 4.890262 -0.139620 -0.298749
  H 5.177607 -2.416065 -3.654685
  H 5.178265 -0.815884 -4.297242
  H 2.726392 -0.601355 -3.840355
  H 2.725749 -2.253676 -3.177409
  H 3.493406 -1.490656 -6.033293
  H 1.981454 -2.240519 -5.535850
  H 3.492793 -3.127255 -5.376629
 25
 111.502916
  H 1.089287 0.355232 0.936096
  C 2.161151 0.347259 0.916574
  C 3.118106 0.735283 1.882841
  C 2.528183 1.262801 3.194087
  H 3.329417 1.535491 3.874063
  C 2.970276 -0.469299 -1.117386
  C 4.310593 -0.499295 -1.194122
  C 5.087879 -0.931313 -2.271336
  C 4.701493 -1.458826 -3.585395
  C 3.227276 -1.600438 -3.939377
  C 3.059876 -2.165417 -5.347490
  H 6.159118 -0.871056 -2.121884
  H 3.798949 1.480104 1.440139
  H 3.798220 -0.109312 2.079081
  H 1.914199 0.506549 3.674708
  H 1.915503 2.142123 3.017204
  H 2.140203 -0.717540 -1.734901
  H 4.873448 -0.154260 -0.335591
  H 5.197142 -2.434288 -3.698242
  H 5.197734 -0.832683 -4.341451
  H 2.742024 -0.623999 -3.896391
  H 2.741445 -2.276049 -3.233488
  H 3.518708 -1.511936 -6.086090
  H 2.005919 -2.264389 -5.595109
  H 3.518162 -3.148468 -5.429418
 25
 125.667706
  H 1.051668 0.388651 1.019092
  C 2.122908 0.379430 0.996800
  C 3.089433 0.759113 1.942878
  C 2.529727 1.292955 3.269613
  H 3.348173 1.559027 3.933562
  C 2.972531 -0.494409 -1.181027
  C 4.310809 -0.519167 -1.244815
  C 5.102587 -0.948067 -2.313832
  C 4.723443 -1.473178 -3.621237
  C 3.249809 -1.612525 -3.969621
  C 3.074804 -2.177356 -5.376579
  H 6.169957 -0.884417 -2.155869
  H 3.768291 1.498320 1.485679
  H 3.767236 -0.091727 2.124834
  H 1.918912 0.541322 3.762584
  H 1.920569 2.177755 3.104701
  H 2.128125 -0.734777 -1.778749
  H 4.865603 -0.171546 -0.379998
  H 5.217662 -2.448081 -3.733292
  H 5.218337 -0.847250 -4.376554
  H 2.767219 -0.634708 -3.923680
  H 2.766524 -2.286740 -3.260399
  H 3.531594 -1.524745 -6.117347
  H 2.019619 -2.274333 -5.619319
  H 3.530878 -3.161357 -5.460236
 25
 136.739780
  H 1.007433 0.425869 1.112302
  C 2.080484 0.414472 1.084672
  C 3.063728 0.790490 2.021254
  C 2.538211 1.330211 3.361769
  H 3.372937 1.588854 4.007016
  C 2.968003 -0.517641 -1.237521
  C 4.298870 -0.536261 -1.286643
  C 5.112118 -0.961420 -2.346901
  C 4.743827 -1.491167 -3.666174
  C 3.270148 -1.632829 -4.020217
  C 3.097249 -2.197743 -5.427853
  H 6.178094 -0.891601 -2.173895
  H 3.740237 1.523003 1.550090
  H 3.739012 -0.065194 2.188915
  H 1.931959 0.584208 3.867315
  H 1.933773 2.219614 3.209411
  H 2.107449 -0.749927 -1.814669
  H 4.841411 -0.186048 -0.415558
  H 5.240390 -2.466653 -3.775757
  H 5.240949 -0.862870 -4.419987
  H 2.787287 -0.655086 -3.974328
  H 2.786695 -2.307248 -3.311231
  H 3.554772 -1.544699 -6.167601
  H 2.042420 -2.295455 -5.672390
  H 3.554155 -3.181322 -5.510743
 25
 144.769006
  H 0.976511 0.463569 1.207106
  C 2.051226 0.446772 1.165757
  C 3.029539 0.818434 2.090661
  C 2.536538 1.363172 3.443287
  H 3.386088 1.615834 4.073087
  C 2.974509 -0.543855 -1.301390
  C 4.304553 -0.559070 -1.342553
  C 5.130184 -0.980187 -2.393304
  C 4.767100 -1.506578 -3.704614
  C 3.293565 -1.645469 -4.051812
  C 3.111346 -2.209595 -5.457970
  H 6.192936 -0.907645 -2.213597
  H 3.702508 1.543014 1.606372
  H 3.701459 -0.040392 2.243585
  H 1.934064 0.621565 3.960718
  H 1.935609 2.257449 3.302330
  H 2.100516 -0.768844 -1.860140
  H 4.840139 -0.206904 -0.466364
  H 5.261403 -2.481471 -3.813892
  H 5.261922 -0.878281 -4.457640
  H 2.813627 -0.666531 -4.002359
  H 2.813061 -2.318486 -3.339566
  H 3.566213 -1.557347 -6.200137
  H 2.055082 -2.304834 -5.696387
  H 3.565610 -3.194215 -5.543393
 25
 149.269474
  H 0.945826 0.508797 1.320868
  C 2.023054 0.484043 1.258981
  C 2.998203 0.860876 2.195755
  C 2.529940 1.409378 3.558249
  H 3.388177 1.658115 4.177511
  C 2.983581 -0.564737 -1.352596
  C 4.306557 -0.579793 -1.393710
  C 5.144322 -1.000118 -2.442682
  C 4.785783 -1.528840 -3.759953
  C 3.311818 -1.669812 -4.112755
  C 3.132916 -2.234417 -5.520203
  H 6.208286 -0.925166 -2.256695
  H 3.670027 1.579706 1.701734
  H 3.669532 -0.000125 2.337491
  H 1.930595 0.671303 4.083845
  H 1.931525 2.306366 3.425814
  H 2.101771 -0.785061 -1.899660
  H 4.837301 -0.226591 -0.514524
  H 5.282110 -2.504424 -3.867429
  H 5.282819 -0.898833 -4.512076
  H 2.830939 -0.691163 -4.063932
  H 2.830220 -2.342988 -3.401245
  H 3.588736 -1.581871 -6.261406
  H 2.077210 -2.330452 -5.760873
  H 3.587980 -3.218667 -5.604711
 25
 151.865285
  H 0.930992 0.552225 1.430977
  C 2.007239 0.519178 1.347390
  C 2.969218 0.898488 2.288572
  C 2.512098 1.446289 3.649587
  H 3.373055 1.693981 4.264847
  C 3.002221 -0.588235 -1.409348
  C 4.326312 -0.603979 -1.452777
  C 5.166448 -1.022945 -2.498786
  C 4.805441 -1.547263 -3.805575
  C 3.331261 -1.684927 -4.150791
  C 3.143585 -2.248654 -5.556678
  H 6.229113 -0.948446 -2.313654
  H 3.639704 1.614373 1.789799
  H 3.640070 0.037036 2.424772
  H 1.913617 0.708708 4.178122
  H 1.913596 2.344338 3.519695
  H 2.112609 -0.804617 -1.946373
  H 4.856360 -0.250036 -0.571445
  H 5.299755 -2.522505 -3.914372
  H 5.300669 -0.918324 -4.558184
  H 2.852980 -0.705265 -4.098606
  H 2.852019 -2.356601 -3.436355
  H 3.596617 -1.597081 -6.300351
  H 2.086526 -2.342043 -5.791237
  H 3.595626 -3.233984 -5.643872
 25
 153.564887
  H 0.911257 0.599210 1.547959
  C 1.988473 0.557971 1.443930
  C 2.947662 0.944186 2.402293
  C 2.492256 1.492512 3.765047
  H 3.353042 1.740467 4.380975
  C 3.018395 -0.607497 -1.457922
  C 4.337116 -0.623849 -1.503086
  C 5.183961 -1.043248 -2.549906
  C 4.822114 -1.569841 -3.861826
  C 3.347175 -1.708501 -4.209811
  C 3.160163 -2.272851 -5.616587
  H 6.247987 -0.967677 -2.361845
  H 3.619024 1.659260 1.901708
  H 3.619523 0.082079 2.536480
  H 1.893357 0.755051 4.293691
  H 1.893220 2.390484 3.635540
  H 2.123164 -0.820008 -1.985450
  H 4.864434 -0.269181 -0.620071
  H 5.318311 -2.545762 -3.970434
  H 5.319456 -0.940608 -4.614914
  H 2.868479 -0.728761 -4.157627
  H 2.867345 -2.379911 -3.495142
  H 3.613165 -1.621440 -6.360335
  H 2.103076 -2.366336 -5.851556
  H 3.612029 -3.258269 -5.703569
 25
 154.598003
  H 0.903417 0.644993 1.659176
  C 1.979612 0.595203 1.535297
  C 2.924672 0.982357 2.498586
  C 2.465647 1.528569 3.856551
  H 3.323407 1.776985 4.475744
  C 3.040502 -0.628022 -1.513090
  C 4.362124 -0.645521 -1.560580
  C 5.207688 -1.064297 -2.604632
  C 4.840410 -1.587218 -3.905470
  C 3.364812 -1.721987 -4.243389
  C 3.166516 -2.286304 -5.647635
  H 6.270496 -0.989783 -2.418915
  H 3.596116 1.696418 1.999178
  H 3.595493 0.120823 2.632812
  H 1.864918 0.790449 4.382541
  H 1.865955 2.426035 3.724963
  H 2.137362 -0.836388 -2.031210
  H 4.889714 -0.290393 -0.676658
  H 5.334391 -2.562968 -4.016045
  H 5.335681 -0.960356 -4.660493
  H 2.889272 -0.741067 -4.187870
  H 2.888102 -2.391098 -3.524705
  H 3.615765 -1.636657 -6.395073
  H 2.107668 -2.376764 -5.874704
  H 3.614595 -3.273096 -5.737270
