 23
 0.000000
  C 0.961726 0.154098 0.433866
  C 2.435618 0.135547 0.388183
  C 3.216142 0.602053 1.549301
  H 2.605531 0.935559 2.379333
  C 3.037541 -0.331865 -0.775154
  C 4.414532 -0.412320 -0.976658
  C 5.108418 -0.861522 -2.096943
  C 4.621942 -1.385205 -3.402242
  C 3.135390 -1.504723 -3.699817
  H 3.009949 -1.905890 -4.699858
  O 6.427514 -0.850874 -2.071252
  H 0.577796 0.532667 1.375471
  H 0.568795 -0.850357 0.269084
  H 0.568920 0.765158 -0.380269
  H 3.869893 1.422860 1.248223
  H 3.869784 -0.198933 1.899891
  H 2.373408 -0.647512 -1.560503
  H 5.038711 -0.082022 -0.154731
  H 5.090474 -2.368744 -3.523565
  H 5.090470 -0.758291 -4.169753
  H 2.649657 -0.533161 -3.664951
  H 2.649881 -2.183025 -3.003175
  H 6.809563 -0.517186 -1.237848
 23
 14.864069
  C 0.973783 0.177583 0.492643
  C 2.450631 0.138098 0.394476
  C 3.267517 0.599284 1.541758
  H 2.644845 0.931153 2.368140
  C 3.010991 -0.331290 -0.773786
  C 4.433273 -0.428399 -1.016533
  C 5.039791 -0.881360 -2.146469
  C 4.645562 -1.410556 -3.466006
  C 3.174006 -1.538014 -3.782738
  H 3.069239 -1.940354 -4.786067
  O 6.276345 -0.781207 -1.897125
  H 0.632613 0.561950 1.448491
  H 0.558799 -0.820349 0.342056
  H 0.558776 0.793506 -0.306822
  H 3.916678 1.422016 1.243870
  H 3.917167 -0.200524 1.895909
  H 2.338432 -0.645642 -1.556176
  H 5.038076 -0.098179 -0.193466
  H 5.131371 -2.381372 -3.565667
  H 5.131034 -0.777602 -4.208943
  H 2.679813 -0.571222 -3.759926
  H 2.680499 -2.221496 -3.098273
  H 6.557382 -0.437241 -1.036587
 23
 54.441021
  C 0.982100 0.193542 0.534990
  C 2.451554 0.144127 0.409816
  C 3.282391 0.601566 1.543171
  H 2.669140 0.934975 2.372394
  C 2.989470 -0.329082 -0.766186
  C 4.492089 -0.439861 -1.042522
  C 5.006823 -0.900818 -2.193311
  C 4.675970 -1.431374 -3.518837
  C 3.189663 -1.562196 -3.845714
  H 3.081601 -1.963456 -4.848529
  O 6.179253 -0.740826 -1.793281
  H 0.661782 0.581080 1.496433
  H 0.560651 -0.798196 0.394269
  H 0.559470 0.809572 -0.254174
  H 3.922533 1.422364 1.240860
  H 3.924246 -0.198289 1.893850
  H 2.322090 -0.643900 -1.548580
  H 5.023347 -0.098052 -0.190465
  H 5.175262 -2.405733 -3.602710
  H 5.175627 -0.784168 -4.252010
  H 2.696154 -0.597939 -3.818491
  H 2.696204 -2.241670 -3.160871
  H 6.424540 -0.393913 -0.919896
 23
 107.077140
  C 0.960238 0.212407 0.581320
  C 2.429891 0.152251 0.430217
  C 3.275002 0.606542 1.556388
  H 2.671313 0.942226 2.391533
  C 2.947199 -0.320502 -0.744352
  C 4.591233 -0.447376 -1.061784
  C 4.987311 -0.921613 -2.245778
  C 4.698403 -1.446871 -3.557688
  C 3.215157 -1.582979 -3.896124
  H 3.115020 -1.983803 -4.898334
  O 6.142954 -0.728001 -1.763645
  H 0.659488 0.602513 1.548937
  H 0.530208 -0.776659 0.449546
  H 0.529584 0.832977 -0.199571
  H 3.913070 1.426561 1.248537
  H 3.914497 -0.196876 1.902172
  H 2.287489 -0.637241 -1.531736
  H 5.025510 -0.088801 -0.168770
  H 5.206077 -2.420132 -3.631389
  H 5.206327 -0.793184 -4.282836
  H 2.719090 -0.619258 -3.868802
  H 2.718746 -2.262055 -3.212472
  H 6.423368 -0.394328 -0.920902
 23
 141.887577
  C 0.896305 0.231459 0.624761
  C 2.393061 0.142037 0.408259
  C 3.270266 0.593241 1.535946
  H 2.700119 0.941792 2.397696
  C 2.798988 -0.321562 -0.746547
  C 4.723156 -0.462464 -1.104996
  C 4.993911 -0.931873 -2.273251
  C 4.715254 -1.460645 -3.588313
  C 3.232478 -1.584785 -3.900173
  H 3.128107 -1.985391 -4.891510
  O 6.232987 -0.697217 -1.697323
  H 0.667370 0.634992 1.627652
  H 0.443003 -0.750553 0.506516
  H 0.446368 0.861728 -0.140070
  H 3.927366 1.392456 1.190678
  H 3.925459 -0.223727 1.839593
  H 2.228381 -0.656494 -1.581692
  H 5.024094 -0.083521 -0.159200
  H 5.206167 -2.434692 -3.659764
  H 5.202016 -0.811420 -4.320503
  H 2.742291 -0.610453 -3.884226
  H 2.738310 -2.274675 -3.211930
  H 6.561169 -0.353424 -0.850111
 23
 155.567415
  C 0.762787 0.271586 0.746970
  C 2.252563 0.149892 0.439250
  C 3.207650 0.600153 1.515032
  H 2.665909 0.950855 2.388261
  C 2.607654 -0.316298 -0.720493
  C 4.944170 -0.500094 -1.173136
  C 5.095079 -0.967469 -2.351010
  C 4.793313 -1.484459 -3.655822
  C 3.292457 -1.578704 -3.910614
  H 3.137730 -1.981974 -4.902957
  O 6.416840 -0.744245 -1.781509
  H 0.622296 0.678338 1.743575
  H 0.283120 -0.703304 0.698045
  H 0.278207 0.931173 0.029809
  H 3.825679 1.420626 1.158067
  H 3.837275 -0.226351 1.832560
  H 2.064363 -0.649589 -1.563794
  H 5.112689 -0.116152 -0.201198
  H 5.262759 -2.466487 -3.737117
  H 5.269599 -0.832260 -4.391740
  H 2.824533 -0.602981 -3.867016
  H 2.818533 -2.260634 -3.207732
  H 6.845462 -0.417056 -0.966196
 23
 159.523219
  C 0.631832 0.338289 0.887611
  C 2.100392 0.192220 0.492021
  C 3.121911 0.589778 1.532990
  H 2.638860 0.933736 2.448387
  C 2.410506 -0.259964 -0.686072
  C 5.130172 -0.506336 -1.260569
  C 5.206956 -0.985049 -2.440676
  C 4.881950 -1.514334 -3.729911
  C 3.373480 -1.612817 -3.927259
  H 3.169787 -2.018875 -4.914180
  O 6.570109 -0.762171 -1.880361
  H 0.543321 0.722285 1.901631
  H 0.129763 -0.627546 0.827224
  H 0.123960 1.015436 0.202041
  H 3.745504 1.397761 1.156363
  H 3.752276 -0.262283 1.785743
  H 1.844926 -0.585116 -1.535950
  H 5.249084 -0.165136 -0.244549
  H 5.344184 -2.502992 -3.811679
  H 5.339243 -0.885977 -4.499250
  H 2.916189 -0.628605 -3.867856
  H 2.924880 -2.253848 -3.177214
  H 7.060734 -0.445124 -1.101389
 23
 157.637400
  C 0.561399 0.386221 0.920711
  C 2.022504 0.198331 0.509622
  C 3.063460 0.530632 1.550709
  H 2.600225 0.871740 2.471448
  C 2.321149 -0.216157 -0.684075
  C 5.337537 -0.471609 -1.330141
  C 5.272280 -0.976261 -2.496355
  C 4.904259 -1.530730 -3.751266
  C 3.382284 -1.634212 -3.866435
  H 3.133265 -2.066362 -4.829933
  O 6.709425 -0.707778 -1.943042
  H 0.493651 0.740107 1.944408
  H 0.023585 -0.555848 0.834317
  H 0.076703 1.104907 0.262965
  H 3.716317 1.322497 1.189720
  H 3.659933 -0.349571 1.781534
  H 1.760587 -0.497317 -1.545282
  H 5.294103 -0.233001 -0.297314
  H 5.363606 -2.522281 -3.836512
  H 5.321158 -0.925629 -4.562931
  H 2.925009 -0.650626 -3.808585
  H 2.973642 -2.260424 -3.079959
  H 7.257737 -0.372357 -1.202471
 23
 156.240930
  C 0.440337 0.432018 1.044689
  C 1.878751 0.219491 0.563153
  C 2.976521 0.531411 1.551989
  H 2.566420 0.879843 2.494322
  C 2.126566 -0.199001 -0.639880
  C 5.494619 -0.501703 -1.424390
  C 5.339049 -1.025030 -2.566129
  C 4.987569 -1.572340 -3.812963
  C 3.446791 -1.628460 -3.866786
  H 3.155342 -2.060409 -4.818359
  O 6.867327 -0.719909 -1.990465
  H 0.430359 0.786185 2.068654
  H -0.116537 -0.501501 0.991662
  H -0.062189 1.165503 0.416501
  H 3.628442 1.308758 1.156755
  H 3.567996 -0.361136 1.750162
  H 1.551259 -0.476817 -1.491970
  H 5.442225 -0.292106 -0.382264
  H 5.417716 -2.574103 -3.909773
  H 5.382678 -0.965405 -4.630930
  H 3.018697 -0.635451 -3.784104
  H 3.053423 -2.248516 -3.069741
  H 7.491052 -0.394709 -1.312145
 23
 126.340888
  C 0.557820 0.467631 1.100287
  C 1.960411 0.229450 0.537209
  C 3.123701 0.611713 1.410325
  H 2.789903 1.034095 2.352171
  C 2.063005 -0.279092 -0.640174
  C 5.538133 -0.572934 -1.463004
  C 5.111018 -1.120483 -2.539244
  C 4.868747 -1.631354 -3.826409
  C 3.337295 -1.731058 -4.048611
  H 3.164076 -2.122459 -5.045249
  O 6.969334 -0.586968 -1.318865
  H 0.647516 0.895725 2.095255
  H 0.017638 -0.471097 1.171287
  H 0.007819 1.154769 0.466041
  H 3.743109 1.344022 0.898077
  H 3.728364 -0.267578 1.619099
  H 1.533000 -0.645838 -1.481209
  H 5.159248 -0.228078 -0.520386
  H 5.314148 -2.623635 -3.924300
  H 5.292201 -0.969163 -4.583025
  H 2.881351 -0.748250 -3.970924
  H 2.894185 -2.397263 -3.319203
  H 7.270967 -0.181979 -0.492456
 23
 117.478059
  C 0.589438 0.429098 1.043160
  C 1.980220 0.176655 0.456710
  C 3.155457 0.611074 1.292369
  H 2.826192 1.079212 2.213368
  C 2.067923 -0.382640 -0.691553
  C 5.717273 -0.640395 -1.460665
  C 5.293164 -1.139879 -2.570995
  C 4.818215 -1.578215 -3.829469
  C 3.267728 -1.627244 -3.884381
  H 2.970079 -1.972807 -4.868871
  O 7.012691 -0.567030 -1.084449
  H 0.686659 0.904296 2.012850
  H 0.057140 -0.511227 1.154132
  H 0.018678 1.073907 0.380924
  H 3.756354 1.327350 0.737101
  H 3.763965 -0.254324 1.544147
  H 1.700120 -0.824215 -1.578262
  H 4.960475 -0.315329 -0.731640
  H 5.180400 -2.594601 -4.016152
  H 5.160523 -0.895033 -4.612706
  H 2.859569 -0.635201 -3.719719
  H 2.889615 -2.319634 -3.138663
  H 7.111546 -0.157074 -0.212090
