 19
 0.000000
  H 1.429210 0.163072 0.457950
  C 2.509092 0.143321 0.408146
  C 3.251782 0.613313 1.576829
  H 2.592770 0.933990 2.375338
  C 3.065831 -0.326763 -0.762033
  C 4.448460 -0.419813 -0.994202
  C 5.090098 -0.872258 -2.122463
  C 4.610108 -1.385819 -3.403306
  C 3.128690 -1.507847 -3.708406
  H 3.003051 -1.909131 -4.709195
  H 6.172282 -0.852253 -2.072540
  H 3.914483 1.438612 1.303610
  H 3.915064 -0.171052 1.950602
  H 2.388951 -0.638603 -1.538470
  H 5.095668 -0.096700 -0.189066
  H 5.089823 -2.367614 -3.536133
  H 5.090273 -0.768213 -4.177644
  H 2.636170 -0.539183 -3.675272
  H 2.635834 -2.185034 -3.015329
 19
 4.602367
  H 1.439385 0.194325 0.534627
  C 2.518389 0.157984 0.444024
  C 3.302305 0.622900 1.601291
  H 2.660090 0.949371 2.414429
  C 3.023143 -0.324789 -0.758211
  C 4.378200 -0.441364 -1.048394
  C 5.086265 -0.877923 -2.137055
  C 4.640133 -1.397894 -3.433526
  C 3.160575 -1.524755 -3.749816
  H 3.038369 -1.926907 -4.752473
  H 6.166021 -0.836116 -2.032921
  H 3.966655 1.446330 1.319849
  H 3.966980 -0.166273 1.967423
  H 2.292018 -0.620816 -1.496021
  H 4.827629 -0.081428 -0.150956
  H 5.133110 -2.374998 -3.565629
  H 5.133313 -0.783103 -4.204311
  H 2.666383 -0.557246 -3.718659
  H 2.666455 -2.202625 -3.058728
 19
 14.722951
  H 1.461710 0.203385 0.552225
  C 2.535792 0.157674 0.439982
  C 3.331030 0.610386 1.573752
  H 2.695430 0.937999 2.392855
  C 3.002588 -0.325710 -0.767071
  C 4.348849 -0.456909 -1.091289
  C 5.100748 -0.882098 -2.150840
  C 4.668309 -1.397493 -3.432273
  C 3.181029 -1.514983 -3.722101
  H 3.032612 -1.918642 -4.725152
  H 6.175040 -0.830232 -2.022283
  H 3.991291 1.434087 1.291298
  H 3.990537 -0.181922 1.936838
  H 2.222423 -0.606785 -1.471182
  H 4.619252 -0.078746 -0.146732
  H 5.158653 -2.372060 -3.568246
  H 5.157960 -0.788268 -4.205456
  H 2.694157 -0.541783 -3.676361
  H 2.695054 -2.185959 -3.014749
 19
 28.174712
  H 1.467885 0.219177 0.585420
  C 2.540162 0.167574 0.460645
  C 3.355751 0.617099 1.595862
  H 2.730465 0.943933 2.417683
  C 2.983769 -0.315993 -0.753113
  C 4.328371 -0.464294 -1.114490
  C 5.101736 -0.881796 -2.154660
  C 4.681444 -1.405989 -3.452218
  C 3.200687 -1.527628 -3.747917
  H 3.055292 -1.931458 -4.746556
  H 6.173291 -0.821450 -2.007966
  H 4.017509 1.441598 1.313146
  H 4.015058 -0.178786 1.955563
  H 2.168715 -0.583905 -1.433064
  H 4.450720 -0.076471 -0.142297
  H 5.176990 -2.381916 -3.584632
  H 5.174831 -0.794244 -4.225416
  H 2.712174 -0.554989 -3.702744
  H 2.714553 -2.196915 -3.039238
 19
 43.375969
  H 1.470907 0.230540 0.583648
  C 2.541709 0.176526 0.461148
  C 3.353950 0.608029 1.597791
  H 2.727238 0.923908 2.420294
  C 2.990938 -0.293534 -0.755010
  C 4.347470 -0.465171 -1.139108
  C 5.128364 -0.875822 -2.163255
  C 4.696986 -1.412694 -3.461522
  C 3.201664 -1.530682 -3.722749
  H 3.030192 -1.936788 -4.711010
  H 6.193692 -0.809857 -2.021749
  H 4.019518 1.439384 1.329601
  H 4.009852 -0.199790 1.950164
  H 2.160673 -0.540594 -1.434437
  H 4.338527 -0.081778 -0.155782
  H 5.190593 -2.393794 -3.599742
  H 5.179431 -0.800251 -4.246965
  H 2.719519 -0.559187 -3.669661
  H 2.729977 -2.192175 -3.001895
 19
 52.177378
  H 1.459809 0.275070 0.559893
  C 2.533563 0.207907 0.446890
  C 3.351794 0.581294 1.631618
  H 2.722746 0.856910 2.464554
  C 3.008591 -0.197957 -0.742182
  C 4.363035 -0.449317 -1.191962
  C 5.117019 -0.844923 -2.178976
  C 4.698894 -1.438860 -3.487268
  C 3.212574 -1.574920 -3.697875
  H 3.031250 -2.003201 -4.685424
  H 6.194234 -0.756476 -2.069475
  H 4.017521 1.419385 1.426375
  H 3.971111 -0.262829 1.942873
  H 2.212138 -0.385144 -1.474333
  H 4.287607 -0.071601 -0.160365
  H 5.191004 -2.406632 -3.604439
  H 5.141170 -0.808262 -4.263593
  H 2.719765 -0.601352 -3.655695
  H 2.764180 -2.242666 -2.959173
 19
 57.976413
  H 1.465610 0.306021 0.569666
  C 2.531776 0.231349 0.477064
  C 3.328784 0.567255 1.679306
  H 2.689625 0.827540 2.505361
  C 3.034619 -0.147415 -0.712697
  C 4.381042 -0.438725 -1.219516
  C 5.124355 -0.833845 -2.204297
  C 4.701883 -1.454404 -3.511355
  C 3.208141 -1.600468 -3.702226
  H 3.018179 -2.047422 -4.672254
  H 6.205150 -0.742512 -2.120918
  H 3.988415 1.407718 1.493062
  H 3.936733 -0.280019 1.984813
  H 2.278904 -0.303856 -1.489960
  H 4.255432 -0.066378 -0.189938
  H 5.195154 -2.424403 -3.594323
  H 5.122023 -0.824168 -4.303946
  H 2.714178 -0.634344 -3.684436
  H 2.776849 -2.251168 -2.948890
 19
 63.076174
  H 1.448094 0.337385 0.549318
  C 2.528408 0.251509 0.479948
  C 3.309960 0.539503 1.724245
  H 2.651135 0.777999 2.546828
  C 3.044508 -0.091365 -0.708703
  C 4.400351 -0.414503 -1.254376
  C 5.138940 -0.820364 -2.243391
  C 4.707120 -1.468982 -3.525522
  C 3.207181 -1.625674 -3.686336
  H 3.001241 -2.104968 -4.642010
  H 6.215851 -0.720433 -2.176569
  H 3.991024 1.391784 1.579493
  H 3.916410 -0.331310 2.016587
  H 2.313989 -0.208471 -1.518748
  H 4.220893 -0.026396 -0.222125
  H 5.202437 -2.443303 -3.581965
  H 5.112664 -0.858270 -4.339713
  H 2.707738 -0.654519 -3.691069
  H 2.788022 -2.254835 -2.899868
 19
 67.584329
  H 1.455887 0.372370 0.541991
  C 2.533052 0.272130 0.491550
  C 3.290932 0.506477 1.750163
  H 2.619351 0.726799 2.569477
  C 3.064747 -0.041464 -0.703625
  C 4.428952 -0.382996 -1.272288
  C 5.151012 -0.801135 -2.263038
  C 4.702342 -1.484217 -3.531075
  C 3.196537 -1.651068 -3.673961
  H 2.981209 -2.158073 -4.613807
  H 6.235498 -0.690831 -2.211559
  H 3.975011 1.340178 1.646145
  H 3.876614 -0.366514 2.019544
  H 2.352343 -0.127752 -1.538842
  H 4.198566 0.027747 -0.246364
  H 5.200232 -2.457274 -3.566032
  H 5.093942 -0.895503 -4.358860
  H 2.697279 -0.689553 -3.702195
  H 2.789452 -2.254700 -2.868990
 19
 71.209660
  H 1.455910 0.400335 0.505285
  C 2.532009 0.288079 0.475570
  C 3.269897 0.461502 1.766224
  H 2.590702 0.654362 2.572108
  C 3.083447 0.012422 -0.719580
  C 4.451162 -0.345954 -1.291108
  C 5.159103 -0.783388 -2.285661
  C 4.696487 -1.497565 -3.521111
  C 3.186898 -1.672591 -3.636057
  H 2.958898 -2.208954 -4.557447
  H 6.247287 -0.665866 -2.255912
  H 3.970795 1.295220 1.712679
  H 3.845711 -0.435774 2.012365
  H 2.394239 -0.030989 -1.567240
  H 4.172932 0.089417 -0.278482
  H 5.196463 -2.469643 -3.535285
  H 5.074693 -0.930647 -4.370142
  H 2.683351 -0.712169 -3.686369
  H 2.793095 -2.251575 -2.805958
 19
 73.793335
  H 1.451362 0.470623 0.483701
  C 2.537686 0.323332 0.468104
  C 3.249345 0.392999 1.769892
  H 2.556249 0.557950 2.579306
  C 3.107719 0.096802 -0.734660
  C 4.470198 -0.295105 -1.313332
  C 5.161895 -0.749770 -2.304866
  C 4.684996 -1.516602 -3.511198
  C 3.183361 -1.714485 -3.593721
  H 2.947735 -2.287610 -4.490930
  H 6.242902 -0.621570 -2.298525
  H 3.972295 1.200066 1.780666
  H 3.789851 -0.527636 1.965845
  H 2.435613 0.123184 -1.598088
  H 4.161055 0.163103 -0.298610
  H 5.198316 -2.485174 -3.499962
  H 5.040491 -0.975162 -4.386984
  H 2.666120 -0.762644 -3.670847
  H 2.811210 -2.267163 -2.734084
 19
 75.495466
  H 1.471146 0.537505 0.460383
  C 2.534528 0.354828 0.460925
  C 3.220195 0.323302 1.778502
  H 2.513719 0.457389 2.583784
  C 3.126062 0.182418 -0.749106
  C 4.480090 -0.253362 -1.342584
  C 5.167633 -0.724912 -2.329778
  C 4.678873 -1.540906 -3.502543
  C 3.175240 -1.761003 -3.550896
  H 2.929937 -2.370590 -4.422089
  H 6.243613 -0.580952 -2.343403
  H 3.967799 1.109176 1.855188
  H 3.735783 -0.625094 1.927601
  H 2.475429 0.291264 -1.625937
  H 4.151264 0.232986 -0.306861
  H 5.200566 -2.493960 -3.467206
  H 5.012131 -1.026405 -4.405268
  H 2.642420 -0.816744 -3.653226
  H 2.825085 -2.284733 -2.661978
 19
 75.404843
  H 1.476102 0.620423 0.455220
  C 2.534488 0.387911 0.457115
  C 3.199609 0.231535 1.771723
  H 2.487744 0.344880 2.581747
  C 3.141269 0.285717 -0.763897
  C 4.446008 -0.209055 -1.384261
  C 5.149985 -0.697588 -2.350709
  C 4.670876 -1.572140 -3.480533
  C 3.174093 -1.816071 -3.505786
  H 2.929953 -2.465850 -4.344099
  H 6.224977 -0.525951 -2.376483
  H 3.983538 0.974476 1.909353
  H 3.671465 -0.747689 1.860247
  H 2.522732 0.512396 -1.630423
  H 4.136452 0.327726 -0.324190
  H 5.212141 -2.520440 -3.410280
  H 4.987224 -1.090631 -4.404571
  H 2.627201 -0.888187 -3.640103
  H 2.842205 -2.302669 -2.593450
 19
 73.601910
  H 1.491423 0.689192 0.471295
  C 2.536193 0.426870 0.460713
  C 3.188358 0.133403 1.756907
  H 2.474290 0.196109 2.572011
  C 3.151873 0.399541 -0.775311
  C 4.391968 -0.163622 -1.429491
  C 5.125008 -0.678276 -2.359400
  C 4.666211 -1.610682 -3.447242
  C 3.171711 -1.870267 -3.466582
  H 2.936017 -2.566293 -4.268157
  H 6.200485 -0.487638 -2.383987
  H 3.996704 0.834124 1.965051
  H 3.631027 -0.862414 1.759437
  H 2.553308 0.717258 -1.627227
  H 4.125903 0.446348 -0.335048
  H 5.214276 -2.548511 -3.326092
  H 4.985155 -1.171976 -4.393031
  H 2.617463 -0.953099 -3.650139
  H 2.839643 -2.307475 -2.528522
