 17
 0.000000
  C 0.958321 -0.017494 -0.005595
  C 2.454284 0.000735 0.011010
  C 3.169884 0.812442 0.795571
  C 4.607009 0.829822 0.812953
  C 5.327723 1.646440 1.601687
  C 6.765555 1.661901 1.617277
  C 7.481541 2.470548 2.398303
  H 8.553620 2.490240 2.417801
  H 0.596547 -0.754818 -0.720435
  H 0.561929 0.954828 -0.296498
  H 0.562849 -0.279909 0.975402
  H 2.954976 -0.688146 -0.655964
  H 2.659291 1.499688 1.458316
  H 5.111630 0.140582 0.147772
  H 4.823800 2.335799 2.266996
  H 7.271849 0.973097 0.952506
  H 6.985206 3.161771 3.065413
 17
 1.061272
  C 0.974884 0.015008 0.021629
  C 2.463018 -0.046108 -0.061505
  C 3.190754 0.750877 0.724245
  C 4.621838 0.808140 0.770854
  C 5.318276 1.624227 1.585134
  C 6.757793 1.678586 1.628712
  C 7.456359 2.496289 2.444650
  H 8.533389 2.512316 2.452448
  H 0.489306 -0.750837 -0.571988
  H 0.616957 0.988690 -0.308271
  H 0.699366 -0.092614 1.068978
  H 2.918864 -0.755615 -0.732567
  H 2.622625 1.394692 1.385417
  H 5.151863 0.143625 0.098500
  H 4.787801 2.288419 2.256155
  H 7.281165 1.010811 0.953976
  H 6.962026 3.170841 3.125969
 17
 3.553194
  C 0.999026 0.051464 0.053426
  C 2.477022 -0.063367 -0.108635
  C 3.211414 0.714940 0.685629
  C 4.645233 0.804634 0.737239
  C 5.316570 1.604089 1.579943
  C 6.743644 1.688960 1.628390
  C 7.411807 2.482856 2.465259
  H 8.484714 2.524386 2.477814
  H 0.445681 -0.788824 -0.349071
  H 0.639752 0.959802 -0.423437
  H 0.836272 0.163452 1.118342
  H 2.893732 -0.783792 -0.785395
  H 2.595517 1.303007 1.365618
  H 5.194064 0.175743 0.039114
  H 4.768555 2.229787 2.271822
  H 7.284205 1.059772 0.932881
  H 6.896705 3.121242 3.169894
 17
 8.599818
  C 1.026403 0.085053 0.084530
  C 2.484091 -0.095119 -0.153200
  C 3.230307 0.675725 0.645464
  C 4.648499 0.787623 0.706838
  C 5.303616 1.587666 1.573053
  C 6.732595 1.697641 1.633493
  C 7.379443 2.487881 2.488840
  H 8.449810 2.552959 2.514703
  H 0.398165 -0.766648 -0.185290
  H 0.660385 0.972553 -0.460797
  H 1.007121 0.325130 1.164281
  H 2.861702 -0.832208 -0.851383
  H 2.572752 1.221051 1.322737
  H 5.205280 0.186059 0.006203
  H 4.739660 2.190595 2.271552
  H 7.290384 1.091495 0.931308
  H 6.847849 3.098820 3.195113
 17
 15.088263
  C 1.041214 0.110375 0.110007
  C 2.484015 -0.107248 -0.183923
  C 3.240565 0.647861 0.616660
  C 4.660033 0.780465 0.686882
  C 5.296039 1.573204 1.567643
  C 6.725314 1.702635 1.638659
  C 7.355580 2.487431 2.509648
  H 8.424939 2.564533 2.539552
  H 0.390030 -0.750034 -0.014666
  H 0.649334 0.935664 -0.498864
  H 1.142244 0.470948 1.148550
  H 2.831866 -0.835828 -0.896192
  H 2.532243 1.163513 1.298313
  H 5.233486 0.196449 -0.022465
  H 4.716423 2.158318 2.274683
  H 7.297374 1.113866 0.927700
  H 6.811072 3.082934 3.226118
 17
 23.831923
  C 1.051781 0.130575 0.128395
  C 2.481090 -0.112512 -0.205274
  C 3.248655 0.628046 0.599650
  C 4.665420 0.773159 0.674177
  C 5.290895 1.562439 1.566969
  C 6.717982 1.705974 1.644321
  C 7.337975 2.487753 2.526661
  H 8.408667 2.574761 2.560527
  H 0.399211 -0.732302 0.129939
  H 0.623892 0.892546 -0.530319
  H 1.259907 0.592709 1.130421
  H 2.809175 -0.830188 -0.941664
  H 2.498291 1.119582 1.276477
  H 5.247775 0.202899 -0.040071
  H 4.703938 2.132433 2.277143
  H 7.296814 1.132568 0.930603
  H 6.783941 3.071333 3.250292
 17
 34.425723
  C 1.053179 0.142640 0.139917
  C 2.476381 -0.107431 -0.222679
  C 3.256330 0.616905 0.589064
  C 4.672773 0.769025 0.667854
  C 5.289882 1.556556 1.567954
  C 6.717686 1.707679 1.652788
  C 7.329591 2.487929 2.542079
  H 8.399485 2.580356 2.581494
  H 0.420703 -0.729143 0.248976
  H 0.579148 0.837118 -0.552477
  H 1.347174 0.691495 1.110949
  H 2.789475 -0.805758 -0.984597
  H 2.455371 1.098407 1.259066
  H 5.262724 0.206009 -0.047611
  H 4.697008 2.118797 2.277826
  H 7.302704 1.141564 0.939237
  H 6.770695 3.063150 3.264551
 17
 46.721981
  C 1.062557 0.152747 0.149335
  C 2.472773 -0.099875 -0.225506
  C 3.264841 0.611525 0.587672
  C 4.676541 0.765295 0.666241
  C 5.290418 1.554658 1.571324
  C 6.715200 1.707997 1.657909
  C 7.321431 2.486538 2.547578
  H 8.392904 2.582992 2.590868
  H 0.442917 -0.730575 0.322136
  H 0.545157 0.817989 -0.567050
  H 1.422943 0.745944 1.101573
  H 2.772263 -0.784620 -1.007148
  H 2.416028 1.081140 1.243409
  H 5.268665 0.206922 -0.047033
  H 4.691282 2.118030 2.285921
  H 7.306224 1.142136 0.941569
  H 6.752151 3.064402 3.276385
 17
 58.127816
  C 1.055380 0.153023 0.146449
  C 2.468393 -0.091521 -0.227308
  C 3.264481 0.611340 0.588404
  C 4.679171 0.767051 0.669546
  C 5.288341 1.553630 1.573992
  C 6.720412 1.711362 1.664931
  C 7.325742 2.491391 2.558179
  H 8.390996 2.588505 2.602568
  H 0.458730 -0.729946 0.359080
  H 0.524647 0.779685 -0.572573
  H 1.451510 0.795708 1.107209
  H 2.767025 -0.760977 -1.019821
  H 2.360655 1.083553 1.249987
  H 5.282815 0.203492 -0.051826
  H 4.693906 2.107515 2.278665
  H 7.309813 1.151576 0.954220
  H 6.763681 3.059322 3.276124
 17
 68.215017
  C 1.051216 0.149522 0.139214
  C 2.467259 -0.079873 -0.224367
  C 3.270716 0.615308 0.590295
  C 4.683749 0.770374 0.670961
  C 5.295428 1.556605 1.577973
  C 6.717261 1.710120 1.665974
  C 7.325347 2.489364 2.561157
  H 8.398900 2.584938 2.604333
  H 0.470204 -0.741959 0.384941
  H 0.510610 0.744354 -0.583033
  H 1.471301 0.839568 1.114484
  H 2.767902 -0.740088 -1.027193
  H 2.321124 1.090764 1.260951
  H 5.281189 0.213135 -0.042422
  H 4.695476 2.117786 2.293999
  H 7.307316 1.146810 0.949488
  H 6.761621 3.060522 3.285460
 17
 78.002944
  C 1.041484 0.138263 0.129069
  C 2.463798 -0.069432 -0.214750
  C 3.274525 0.619722 0.594036
  C 4.685670 0.776330 0.673650
  C 5.297097 1.559952 1.581128
  C 6.725939 1.714427 1.670713
  C 7.333029 2.489856 2.565924
  H 8.401389 2.584352 2.608856
  H 0.482805 -0.755093 0.398264
  H 0.482781 0.718632 -0.609804
  H 1.474614 0.879497 1.133531
  H 2.768251 -0.719696 -1.020291
  H 2.276707 1.102792 1.285894
  H 5.287682 0.216578 -0.042406
  H 4.701867 2.113518 2.292651
  H 7.314935 1.154541 0.955211
  H 6.770728 3.057704 3.291385
 17
 88.271385
  C 1.032196 0.120957 0.106429
  C 2.461414 -0.052734 -0.202136
  C 3.282728 0.624624 0.598124
  C 4.689588 0.779513 0.677101
  C 5.303157 1.562313 1.585493
  C 6.725888 1.714493 1.671514
  C 7.336456 2.489703 2.568185
  H 8.410932 2.583284 2.608812
  H 0.493316 -0.779534 0.389397
  H 0.474039 0.681616 -0.631770
  H 1.462468 0.928935 1.173860
  H 2.774778 -0.693932 -1.015560
  H 2.223383 1.133997 1.331735
  H 5.294982 0.217512 -0.042344
  H 4.706339 2.118996 2.303539
  H 7.313889 1.153163 0.952010
  H 6.778054 3.055645 3.293731
 17
 98.538923
  C 1.014887 0.093643 0.074199
  C 2.455016 -0.038860 -0.187203
  C 3.290301 0.628196 0.603852
  C 4.698677 0.784432 0.682289
  C 5.314035 1.564885 1.589371
  C 6.742358 1.718044 1.673399
  C 7.353652 2.490411 2.568332
  H 8.422581 2.582797 2.606264
  H 0.494842 -0.816962 0.352199
  H 0.456666 0.649322 -0.675361
  H 1.421035 0.975423 1.239029
  H 2.778821 -0.670858 -0.999401
  H 2.147820 1.177442 1.401522
  H 5.300216 0.229927 -0.031174
  H 4.721441 2.117082 2.305171
  H 7.327166 1.159955 0.954881
  H 6.795465 3.057012 3.298710
 17
 107.361341
  C 1.003904 0.061892 0.035011
  C 2.446192 -0.014626 -0.165799
  C 3.297923 0.631770 0.611972
  C 4.705012 0.786711 0.689150
  C 5.322545 1.564762 1.596261
  C 6.752153 1.719289 1.675537
  C 7.365526 2.491359 2.568750
  H 8.433575 2.584928 2.602203
  H 0.505266 -0.861498 0.301983
  H 0.449846 0.614777 -0.718706
  H 1.362947 1.028555 1.322072
  H 2.782488 -0.635346 -0.983620
  H 2.063315 1.230804 1.492445
  H 5.307385 0.238509 -0.026679
  H 4.732000 2.116376 2.312750
  H 7.334341 1.163816 0.954948
  H 6.809292 3.059181 3.300051
