 14
 0.000000
  H 1.361000 0.121756 0.352971
  C 2.434120 0.091439 0.278066
  H 3.000512 0.433675 1.129018
  C 3.050458 -0.362086 -0.849924
  C 4.450669 -0.403669 -0.954951
  C 5.186089 -0.850696 -2.069802
  C 4.589104 -1.349752 -3.313940
  H 3.510112 -1.344912 -3.303249
  O 6.481518 -0.842680 -2.050878
  H 2.443583 -0.695234 -1.678211
  H 5.016710 -0.058951 -0.097462
  H 4.955908 -2.358461 -3.508657
  H 4.956817 -0.756000 -4.151885
  H 6.896124 -0.512827 -1.227490
 14
 3.116253
  H 1.351828 0.189145 0.295157
  C 2.425036 0.178422 0.226118
  H 2.975799 0.587457 1.057570
  C 3.058614 -0.335136 -0.865008
  C 4.458084 -0.363413 -0.954415
  C 5.199447 -0.865820 -2.037930
  C 4.594849 -1.331119 -3.294329
  H 3.587415 -1.704086 -3.161059
  O 6.498794 -0.757799 -2.055324
  H 2.463137 -0.720492 -1.681091
  H 5.011706 0.016108 -0.102624
  H 5.233944 -2.087359 -3.746354
  H 4.558416 -0.506377 -4.011321
  H 6.958114 -0.862047 -1.200488
 14
 11.972054
  H 1.298398 0.178626 0.243380
  C 2.373595 0.145723 0.217916
  H 2.895906 0.398316 1.126327
  C 3.043788 -0.223385 -0.908174
  C 4.447864 -0.273440 -0.942956
  C 5.210566 -0.765304 -2.014425
  C 4.618957 -1.365103 -3.213767
  H 3.688064 -1.880686 -3.001266
  O 6.518513 -0.582278 -2.008289
  H 2.482170 -0.464557 -1.798852
  H 4.981200 0.082885 -0.070825
  H 5.334812 -2.022631 -3.701227
  H 4.391197 -0.577852 -3.941422
  H 7.086277 -1.188779 -1.507663
 14
 8.784667
  H 1.248774 0.121915 0.117706
  C 2.320866 0.068187 0.168108
  H 2.764176 0.053475 1.151735
  C 3.073425 -0.008730 -0.959014
  C 4.475965 -0.159459 -0.903836
  C 5.242266 -0.708045 -1.940999
  C 4.636497 -1.453186 -3.056499
  H 3.710890 -1.951370 -2.781364
  O 6.524281 -0.451219 -1.965328
  H 2.591620 0.052522 -1.925246
  H 4.909229 -0.035368 0.079674
  H 5.332873 -2.169133 -3.486364
  H 4.413384 -0.725074 -3.843238
  H 7.110382 -1.210538 -2.146081
 14
 38.428853
  H 1.334364 -0.094076 0.042865
  C 2.401047 0.004637 0.129363
  H 2.779220 0.096157 1.135638
  C 3.184988 -0.026566 -0.974757
  C 4.656436 -0.099374 -0.873831
  C 5.216396 -0.794940 -1.938070
  C 4.547330 -1.452062 -3.055399
  H 3.591067 -1.904914 -2.791018
  O 6.518225 -0.506463 -2.105410
  H 2.759442 -0.037952 -1.945094
  H 4.642439 0.105427 0.191818
  H 5.199432 -2.205762 -3.495122
  H 4.389579 -0.694027 -3.819937
  H 7.087733 -1.274286 -1.937087
 14
 83.308701
  H 1.392783 -0.167591 0.224213
  C 2.458301 0.025621 0.210503
  H 2.870781 0.291795 1.170688
  C 3.141622 -0.111195 -0.909834
  C 4.769461 -0.111718 -0.889679
  C 5.087218 -0.897365 -1.944972
  C 4.544744 -1.423789 -3.188466
  H 3.513837 -1.757543 -3.107923
  O 6.467258 -0.591713 -2.028977
  H 2.733790 -0.344701 -1.874723
  H 4.502326 0.378289 0.023004
  H 5.155091 -2.255519 -3.532036
  H 4.626616 -0.634415 -3.938052
  H 7.037222 -1.283136 -1.646594
 14
 111.826537
  H 1.314253 -0.031508 0.565372
  C 2.379893 0.062898 0.373029
  H 2.943121 0.353566 1.246665
  C 2.871442 -0.161399 -0.798970
  C 4.882499 -0.167288 -1.025991
  C 4.990242 -0.929304 -2.065572
  C 4.647935 -1.459154 -3.366467
  H 3.588900 -1.694820 -3.431260
  O 6.421517 -0.518973 -1.896980
  H 2.458045 -0.434745 -1.743710
  H 4.687220 0.361127 -0.131792
  H 5.220714 -2.361301 -3.572681
  H 4.909330 -0.711624 -4.114728
  H 6.991416 -1.191267 -1.471243
 14
 121.868909
  H 1.175110 0.019175 0.805648
  C 2.214785 0.080404 0.489001
  H 2.885988 0.303536 1.304358
  C 2.596073 -0.094472 -0.730637
  C 5.116747 -0.183228 -1.160479
  C 5.047197 -0.918653 -2.206343
  C 4.737231 -1.512863 -3.464428
  H 3.664037 -1.677294 -3.538181
  O 6.456796 -0.427926 -1.836188
  H 2.121005 -0.302208 -1.661667
  H 4.979498 0.250971 -0.203523
  H 5.248163 -2.466383 -3.580479
  H 5.067002 -0.848673 -4.264556
  H 7.011656 -1.113385 -1.386990
 14
 122.515415
  H 1.064237 -0.084161 0.936460
  C 2.053611 0.065401 0.496998
  H 2.793775 0.369671 1.222574
  C 2.316622 -0.097003 -0.754179
  C 5.406169 -0.153702 -1.195915
  C 5.123011 -0.868782 -2.217620
  C 4.744454 -1.485393 -3.434149
  H 3.661116 -1.420867 -3.530665
  O 6.646466 -0.442778 -1.902372
  H 1.776129 -0.363762 -1.633371
  H 5.292006 0.242155 -0.216539
  H 5.032028 -2.537173 -3.449372
  H 5.215929 -0.977002 -4.275571
  H 7.189483 -1.152082 -1.476882
 14
 111.320376
  H 1.455369 -0.188212 0.570246
  C 2.451171 -0.080160 0.142102
  H 3.179492 0.255532 0.864170
  C 2.681504 -0.323865 -1.090756
  C 5.430820 -0.130046 -1.168603
  C 4.907841 -0.831316 -2.116108
  C 4.301191 -1.425318 -3.250403
  H 3.268274 -1.110642 -3.371179
  O 6.786847 -0.264767 -1.569393
  H 2.133013 -0.631139 -1.948576
  H 5.219415 0.253159 -0.193791
  H 4.327690 -2.513090 -3.174163
  H 4.826944 -1.115401 -4.160265
  H 7.310300 -0.804106 -0.950235
 14
 87.269048
  H 1.763508 -0.178270 0.264293
  C 2.802210 -0.153594 -0.039950
  H 3.446493 0.295994 0.694411
  C 3.108019 -0.602130 -1.232625
  C 5.363644 -0.159923 -1.075919
  C 4.701936 -0.827500 -2.040972
  C 4.034842 -1.323000 -3.235696
  H 3.121860 -0.801609 -3.499291
  O 6.700569 -0.250220 -1.306391
  H 2.386647 -1.025466 -1.897336
  H 5.045086 0.333584 -0.181166
  H 3.805686 -2.381591 -3.103767
  H 4.692820 -1.207814 -4.109360
  H 7.263790 -0.652641 -0.618897
 14
 26.933938
  H 1.711073 -0.195168 0.336238
  C 2.734529 -0.150591 -0.005711
  H 3.374132 0.473571 0.586683
  C 3.068843 -0.783468 -1.144806
  C 5.356684 -0.190523 -1.133231
  C 4.375317 -0.924402 -1.794440
  C 4.117322 -1.275172 -3.202085
  H 3.417139 -0.563826 -3.635021
  O 6.600966 -0.362919 -1.486056
  H 2.288550 -1.319282 -1.661261
  H 5.135602 0.419889 -0.272417
  H 3.669563 -2.267264 -3.267757
  H 5.027216 -1.260965 -3.801625
  H 7.311301 -0.564413 -0.851897
 14
 5.834344
  H 1.696656 -0.668272 0.587152
  C 2.696274 -0.595194 0.194185
  H 3.469665 -0.397619 0.915149
  C 2.915501 -0.761869 -1.127486
  C 5.333985 -0.306162 -1.133735
  C 4.166094 -0.677987 -1.812393
  C 4.190654 -0.901075 -3.266852
  H 3.807788 -0.008680 -3.769591
  O 6.490435 -0.428281 -1.695008
  H 2.067589 -1.003781 -1.755898
  H 5.273794 0.038158 -0.107503
  H 3.533623 -1.718097 -3.554445
  H 5.200993 -1.075748 -3.627872
  H 7.273012 -0.504305 -1.112626
 14
 3.522685
  H 1.640225 -0.101695 0.462545
  C 2.649537 -0.156805 0.094903
  H 3.419517 0.138745 0.786386
  C 2.891164 -0.588105 -1.161862
  C 5.346540 -0.308601 -1.166109
  C 4.163878 -0.727167 -1.791974
  C 4.228539 -1.328884 -3.135827
  H 3.525563 -0.838215 -3.809071
  O 6.492934 -0.515108 -1.721301
  H 2.046020 -0.881518 -1.771662
  H 5.296913 0.184524 -0.201219
  H 3.906497 -2.371217 -3.089760
  H 5.231605 -1.289078 -3.549038
  H 7.277134 -0.225789 -1.212934
 14
 3.488850
  H 1.630157 0.016141 0.443154
  C 2.640088 -0.093667 0.085375
  H 3.418578 0.140700 0.790547
  C 2.870187 -0.515655 -1.177908
  C 5.339206 -0.382127 -1.145650
  C 4.140541 -0.719040 -1.791936
  C 4.219670 -1.311031 -3.139699
  H 3.266254 -1.282730 -3.655067
  O 6.470105 -0.640086 -1.707535
  H 2.018081 -0.743995 -1.801895
  H 5.313294 0.093040 -0.170984
  H 4.525914 -2.357271 -3.057045
  H 4.994090 -0.827324 -3.733450
  H 7.269899 -0.385866 -1.204828
