 20
 0.000000
  C 0.991191 0.130613 0.376062
  C 2.462633 0.143233 0.408654
  C 3.219493 0.617302 1.588125
  C 2.407117 1.097790 2.783029
  H 3.077082 1.416353 3.576076
  C 3.122566 -0.313683 -0.727724
  C 4.504806 -0.383579 -0.902761
  C 5.102495 -0.845047 -2.053921
  H 4.562113 -1.195229 -2.925593
  O 6.392950 -0.904533 -2.205613
  H 0.538380 0.497752 1.288760
  H 0.633288 -0.883328 0.189370
  H 0.633865 0.733400 -0.460582
  H 3.877042 1.432034 1.264863
  H 3.876663 -0.194671 1.918880
  H 1.773256 0.305322 3.173510
  H 1.773732 1.940416 2.516364
  H 2.505217 -0.644813 -1.551906
  H 5.173642 -0.066457 -0.113508
  H 6.884179 -0.588435 -1.419458
 20
 3.425046
  C 0.984804 0.142170 0.368381
  C 2.454258 0.136534 0.429465
  C 3.191581 0.597492 1.625914
  C 2.366826 1.098637 2.802531
  H 3.033672 1.406428 3.603851
  C 3.136928 -0.321862 -0.694434
  C 4.524144 -0.405194 -0.837275
  C 5.105461 -0.865985 -1.997954
  H 4.494316 -1.206583 -2.828177
  O 6.383493 -1.036377 -2.184626
  H 0.519030 0.512401 1.272705
  H 0.620362 -0.865857 0.161810
  H 0.651672 0.744898 -0.478520
  H 3.882783 1.389944 1.318424
  H 3.829518 -0.225778 1.967615
  H 1.716821 0.320446 3.194738
  H 1.761821 1.958785 2.527034
  H 2.542041 -0.647287 -1.537403
  H 5.182324 -0.144360 -0.023030
  H 6.994289 -0.395808 -1.773669
 20
 3.425046
  C 0.984804 0.142170 0.368381
  C 2.454258 0.136534 0.429465
  C 3.191581 0.597492 1.625914
  C 2.366826 1.098637 2.802531
  H 3.033672 1.406428 3.603851
  C 3.136928 -0.321862 -0.694434
  C 4.524144 -0.405194 -0.837275
  C 5.105461 -0.865985 -1.997954
  H 4.494316 -1.206583 -2.828177
  O 6.383493 -1.036377 -2.184626
  H 0.519030 0.512401 1.272705
  H 0.620362 -0.865857 0.161810
  H 0.651672 0.744898 -0.478520
  H 3.882783 1.389944 1.318424
  H 3.829518 -0.225778 1.967615
  H 1.716821 0.320446 3.194738
  H 1.761821 1.958785 2.527034
  H 2.542041 -0.647287 -1.537403
  H 5.182324 -0.144360 -0.023030
  H 6.994289 -0.395808 -1.773669
 20
 12.004502
  C 0.976977 0.152122 0.366067
  C 2.443576 0.126233 0.445172
  C 3.172156 0.588944 1.642475
  C 2.345007 1.114234 2.806075
  H 3.007549 1.422558 3.610312
  C 3.133906 -0.353677 -0.666922
  C 4.522329 -0.452880 -0.793734
  C 5.124453 -0.847402 -1.965282
  H 4.534180 -1.072593 -2.851417
  O 6.415343 -1.064941 -2.070059
  H 0.504638 0.539578 1.260026
  H 0.601057 -0.853379 0.166012
  H 0.663116 0.746839 -0.493995
  H 3.881043 1.365837 1.334354
  H 3.801244 -0.235999 1.996534
  H 1.678322 0.350034 3.198421
  H 1.752788 1.978022 2.513922
  H 2.545665 -0.683459 -1.513284
  H 5.187081 -0.218979 0.024560
  H 7.100579 -0.382055 -2.120698
 20
 16.387194
  C 0.954805 0.152144 0.372862
  C 2.423191 0.106352 0.443197
  C 3.171970 0.585691 1.625633
  C 2.356764 1.143164 2.783957
  H 3.029535 1.454601 3.579008
  C 3.101033 -0.407085 -0.659490
  C 4.483754 -0.492274 -0.798544
  C 5.139255 -0.777486 -1.981331
  H 4.641180 -0.870879 -2.945615
  O 6.424370 -0.948623 -1.925621
  H 0.496504 0.570666 1.259685
  H 0.561968 -0.853189 0.207149
  H 0.643825 0.728003 -0.500352
  H 3.892619 1.340834 1.297793
  H 3.769835 -0.256250 1.993621
  H 1.679762 0.397685 3.192288
  H 1.783033 2.016494 2.482688
  H 2.508284 -0.784726 -1.482063
  H 5.211510 -0.301239 -0.017933
  H 7.239520 -0.509747 -2.205284
 20
 29.788159
  C 0.908405 0.135735 0.404872
  C 2.381455 0.091478 0.424205
  C 3.171905 0.580446 1.575654
  C 2.405969 1.156777 2.757563
  H 3.112615 1.464718 3.524439
  C 3.025966 -0.430063 -0.691006
  C 4.399566 -0.494408 -0.866154
  C 5.131052 -0.711523 -2.030986
  H 4.793508 -0.758316 -3.062855
  O 6.392392 -0.824215 -1.788002
  H 0.491277 0.559031 1.311359
  H 0.506871 -0.869193 0.271224
  H 0.563753 0.723702 -0.446223
  H 3.897882 1.316625 1.217098
  H 3.782760 -0.257617 1.931948
  H 1.738614 0.421603 3.199563
  H 1.831976 2.035444 2.472904
  H 2.417521 -0.845043 -1.483709
  H 5.248972 -0.403892 -0.180496
  H 7.330306 -0.606383 -1.842730
 20
 54.832305
  C 0.871113 0.131874 0.434542
  C 2.343647 0.076212 0.403046
  C 3.178023 0.565452 1.524738
  C 2.457805 1.162380 2.725692
  H 3.195748 1.464640 3.465454
  C 2.953376 -0.455190 -0.724065
  C 4.320678 -0.511835 -0.932997
  C 5.128102 -0.659991 -2.058444
  H 4.964109 -0.644903 -3.127836
  O 6.354977 -0.772854 -1.629879
  H 0.496387 0.573547 1.349926
  H 0.455503 -0.872200 0.335639
  H 0.497589 0.713663 -0.408643
  H 3.900094 1.286844 1.132488
  H 3.785394 -0.276547 1.875949
  H 1.799215 0.439393 3.199534
  H 1.888013 2.048203 2.455680
  H 2.324275 -0.900280 -1.486297
  H 5.354256 -0.500311 -0.334462
  H 7.300761 -0.596051 -1.533826
 20
 82.837492
  C 0.833371 0.122369 0.465583
  C 2.309542 0.054879 0.379443
  C 3.189015 0.537572 1.480201
  C 2.508271 1.168718 2.686796
  H 3.264652 1.484825 3.400966
  C 2.876377 -0.470278 -0.756413
  C 4.240622 -0.519763 -1.017798
  C 5.082285 -0.590946 -2.037468
  H 5.021714 -0.486946 -3.105917
  O 6.354587 -0.780254 -1.460907
  H 0.483334 0.559439 1.392012
  H 0.413647 -0.879861 0.369396
  H 0.434033 0.693607 -0.373381
  H 3.883973 1.263286 1.044024
  H 3.802973 -0.297676 1.827551
  H 1.853862 0.461865 3.191517
  H 1.929603 2.045738 2.406664
  H 2.217595 -0.938449 -1.484209
  H 5.620777 -0.598910 -0.412921
  H 7.301489 -0.575840 -1.375856
 20
 70.757327
  C 0.801505 0.112388 0.489098
  C 2.279917 0.051628 0.365608
  C 3.186765 0.549816 1.446632
  C 2.521421 1.175143 2.666231
  H 3.288691 1.502112 3.365340
  C 2.819522 -0.475700 -0.774167
  C 4.169762 -0.547879 -1.063116
  C 5.065480 -0.557981 -2.006880
  H 5.072797 -0.366185 -3.064094
  O 6.389054 -0.820807 -1.423474
  H 0.474541 0.555319 1.420128
  H 0.382656 -0.891995 0.413081
  H 0.379237 0.679177 -0.341692
  H 3.859851 1.285779 0.996664
  H 3.805973 -0.285934 1.785067
  H 1.884538 0.462315 3.184213
  H 1.930236 2.046968 2.395530
  H 2.142198 -0.938258 -1.490223
  H 5.909245 -0.749036 -0.471161
  H 7.330549 -0.558063 -1.334926
 20
 46.112252
  C 0.759816 0.034954 0.531065
  C 2.237998 0.040974 0.363908
  C 3.172304 0.609250 1.390792
  C 2.531653 1.248728 2.613077
  H 3.308358 1.638174 3.273547
  C 2.763210 -0.485626 -0.799142
  C 4.074792 -0.546674 -1.124338
  C 5.140555 -0.380433 -1.824594
  H 5.317401 0.272264 -2.673364
  O 6.372605 -1.092696 -1.454884
  H 0.442945 0.476357 1.469871
  H 0.381800 -0.987261 0.485073
  H 0.284492 0.579296 -0.283764
  H 3.775855 1.368267 0.889746
  H 3.842816 -0.179437 1.719857
  H 1.941208 0.532900 3.173116
  H 1.890540 2.071196 2.330124
  H 2.076888 -0.962212 -1.492526
  H 6.193357 -1.472132 -0.561132
  H 7.185345 -0.537081 -1.468572
