 25
 0.000000
  C 0.950917 0.052839 0.197392
  C 2.450113 0.070685 0.083677
  C 3.263528 -0.005022 1.363152
  C 2.509888 -0.088586 2.689482
  C 3.491014 -0.155561 3.855659
  C 3.060074 0.142076 -1.117822
  C 2.324345 0.207015 -2.425372
  H 1.244474 0.200111 -2.337044
  C 4.513538 0.140589 -1.222730
  C 5.220117 0.180678 -2.345918
  H 6.297658 0.176211 -2.340374
  H 0.620161 -0.034565 1.225610
  H 0.533913 -0.794115 -0.347131
  H 0.513187 0.968396 -0.195179
  H 3.908709 0.877992 1.413346
  H 3.915044 -0.882716 1.305382
  H 1.880144 -0.980616 2.712753
  H 1.872946 0.789039 2.819786
  H 4.130335 -1.031964 3.771339
  H 2.954104 -0.215055 4.799961
  H 4.123434 0.729573 3.878415
  H 2.619930 -0.640407 -3.044801
  H 2.615562 1.114255 -2.955901
  H 5.068192 0.104056 -0.297583
  H 4.792447 0.219673 -3.333447
 25
 -0.302066
  C 0.966876 0.123337 0.193069
  C 2.467301 0.100941 0.092456
  C 3.275276 0.020342 1.372942
  C 2.505777 -0.098690 2.687388
  C 3.471796 -0.230371 3.860514
  C 3.080488 0.156593 -1.108536
  C 2.325676 0.150592 -2.411153
  H 1.253105 0.087488 -2.273746
  C 4.531792 0.204030 -1.232881
  C 5.222235 0.210412 -2.372173
  H 6.298348 0.262444 -2.368225
  H 0.637041 0.329405 1.204398
  H 0.542861 -0.834784 -0.109186
  H 0.556374 0.898808 -0.450486
  H 3.915461 0.905695 1.443304
  H 3.935718 -0.849752 1.301879
  H 1.857010 -0.976659 2.663305
  H 1.886141 0.786343 2.846510
  H 4.094905 -1.115184 3.747427
  H 2.925225 -0.314578 4.797163
  H 4.122055 0.640001 3.921029
  H 2.639560 -0.706808 -3.005437
  H 2.551154 1.052204 -2.979948
  H 5.091483 0.254143 -0.310468
  H 4.764715 0.163286 -3.344873
 25
 0.191413
  C 0.978984 0.208043 0.212550
  C 2.474699 0.111216 0.096853
  C 3.283987 0.011840 1.373079
  C 2.498725 -0.124494 2.676695
  C 3.446236 -0.306401 3.857674
  C 3.076568 0.168749 -1.107532
  C 2.327745 0.060595 -2.410258
  H 1.261311 -0.075818 -2.276103
  C 4.523585 0.269251 -1.244989
  C 5.211163 0.263341 -2.383889
  H 6.282197 0.378307 -2.383761
  H 0.697947 0.702882 1.136818
  H 0.506414 -0.773567 0.195066
  H 0.594973 0.809398 -0.606804
  H 3.931981 0.889911 1.462319
  H 3.938492 -0.861387 1.287915
  H 1.830326 -0.985707 2.619153
  H 1.894279 0.767652 2.850769
  H 4.052620 -1.200738 3.729351
  H 2.886439 -0.402807 4.785228
  H 4.113858 0.548169 3.948066
  H 2.704791 -0.802576 -2.957292
  H 2.492899 0.945475 -3.024263
  H 5.079609 0.394389 -0.326738
  H 4.756366 0.144010 -3.351414
 25
 1.656525
  C 1.001928 0.315165 0.231788
  C 2.487922 0.142663 0.102487
  C 3.294915 0.000748 1.373996
  C 2.489927 -0.146863 2.664288
  C 3.414431 -0.377983 3.854493
  C 3.077255 0.193082 -1.109182
  C 2.337250 -0.044847 -2.401356
  H 1.282823 -0.249141 -2.255729
  C 4.516598 0.356920 -1.262412
  C 5.199468 0.344459 -2.404704
  H 6.259738 0.534121 -2.416993
  H 0.796097 1.068032 0.991161
  H 0.485174 -0.599250 0.514881
  H 0.616818 0.704490 -0.705421
  H 3.962720 0.861162 1.489952
  H 3.931754 -0.883017 1.268873
  H 1.802283 -0.989880 2.577363
  H 1.901131 0.753504 2.847031
  H 4.002940 -1.282249 3.713334
  H 2.838415 -0.484205 4.770969
  H 4.099267 0.458927 3.975795
  H 2.777087 -0.917254 -2.883089
  H 2.439411 0.801638 -3.079906
  H 5.065020 0.563986 -0.353521
  H 4.749990 0.148003 -3.362087
 25
 7.313400
  C 1.035599 0.446251 0.227384
  C 2.507703 0.169669 0.122132
  C 3.307378 -0.069302 1.377294
  C 2.485918 -0.170000 2.660842
  C 3.378174 -0.482665 3.856492
  C 3.070806 0.239249 -1.105305
  C 2.359282 -0.235146 -2.349029
  H 1.329482 -0.520067 -2.161506
  C 4.487714 0.508492 -1.289419
  C 5.163760 0.474047 -2.435778
  H 6.194604 0.782836 -2.480638
  H 0.906395 1.361595 0.811134
  H 0.443182 -0.336864 0.687405
  H 0.716009 0.723281 -0.773870
  H 4.049281 0.726238 1.511267
  H 3.868431 -0.998833 1.243188
  H 1.737463 -0.957847 2.559236
  H 1.962818 0.770596 2.841641
  H 3.899963 -1.426005 3.708531
  H 2.786511 -0.557851 4.766093
  H 4.121444 0.299954 3.995406
  H 2.889920 -1.118088 -2.702084
  H 2.374939 0.509326 -3.145289
  H 5.012809 0.847460 -0.405661
  H 4.731962 0.150597 -3.366411
 25
 18.280518
  C 1.076239 0.597649 0.201758
  C 2.539686 0.259584 0.154141
  C 3.324719 -0.068801 1.389986
  C 2.481541 -0.191434 2.656484
  C 3.336186 -0.604193 3.848574
  C 3.061674 0.287435 -1.098804
  C 2.396824 -0.438213 -2.245291
  H 1.388607 -0.760626 -2.003742
  C 4.443449 0.651524 -1.335026
  C 5.102580 0.582686 -2.486538
  H 6.097589 0.982779 -2.581758
  H 0.982365 1.614438 0.602797
  H 0.427939 -0.055651 0.769556
  H 0.856722 0.776030 -0.851983
  H 4.097445 0.691029 1.563868
  H 3.854269 -1.008428 1.209691
  H 1.694988 -0.932902 2.505192
  H 2.004001 0.767005 2.869887
  H 3.806735 -1.568242 3.666057
  H 2.727774 -0.684541 4.746557
  H 4.120120 0.128374 4.030034
  H 3.000286 -1.323641 -2.438104
  H 2.359329 0.152539 -3.161041
  H 4.939479 1.124677 -0.496052
  H 4.682138 0.154380 -3.379032
 25
 37.304900
  C 1.105216 0.689126 0.168853
  C 2.541821 0.269205 0.182820
  C 3.314146 -0.154267 1.383574
  C 2.487009 -0.186586 2.666630
  C 3.318223 -0.662666 3.851840
  C 3.021784 0.353505 -1.099802
  C 2.450992 -0.582809 -2.143569
  H 1.490657 -0.992373 -1.841819
  C 4.365727 0.803123 -1.377099
  C 5.032904 0.691439 -2.525566
  H 5.999252 1.147907 -2.654895
  H 1.005616 1.753324 0.424580
  H 0.393859 0.115096 0.745314
  H 1.070284 0.880893 -0.929590
  H 4.166147 0.523041 1.534035
  H 3.742632 -1.141393 1.187107
  H 1.632194 -0.852480 2.534518
  H 2.103011 0.814934 2.871969
  H 3.697294 -1.667201 3.674176
  H 2.718724 -0.678056 4.759189
  H 4.167737 -0.002031 4.013167
  H 3.160271 -1.401637 -2.246004
  H 2.329469 -0.112547 -3.121092
  H 4.833898 1.353647 -0.567991
  H 4.644870 0.163837 -3.378836
 25
 63.505905
  C 1.141033 0.770970 0.158252
  C 2.527284 0.291918 0.217122
  C 3.304482 -0.165424 1.402173
  C 2.487384 -0.211408 2.690396
  C 3.318586 -0.723436 3.859852
  C 2.978866 0.371360 -1.101823
  C 2.466108 -0.674852 -2.080448
  H 1.507583 -1.082821 -1.768277
  C 4.307022 0.873175 -1.405865
  C 4.978439 0.742085 -2.552923
  H 5.927853 1.228082 -2.703191
  H 1.003503 1.855432 0.197115
  H 0.385066 0.280383 0.761593
  H 1.345208 0.929476 -1.053429
  H 4.158893 0.510979 1.544334
  H 3.731306 -1.151626 1.195184
  H 1.622252 -0.862190 2.549541
  H 2.118399 0.791499 2.917058
  H 3.682134 -1.729306 3.658943
  H 2.724305 -0.749495 4.770329
  H 4.178072 -0.078235 4.029460
  H 3.193789 -1.485562 -2.107919
  H 2.358397 -0.280247 -3.091020
  H 4.741738 1.490225 -0.626610
  H 4.609139 0.166425 -3.383640
 25
 77.621047
  C 1.153443 0.809800 0.200293
  C 2.470924 0.303189 0.234685
  C 3.263532 -0.187714 1.396136
  C 2.485635 -0.217672 2.708801
  C 3.338939 -0.753343 3.851566
  C 2.927428 0.394134 -1.131692
  C 2.467105 -0.715364 -2.080777
  H 1.506444 -1.125139 -1.777821
  C 4.262602 0.924707 -1.411640
  C 4.969631 0.771165 -2.527784
  H 5.921036 1.258757 -2.659622
  H 1.008253 1.877461 0.104192
  H 0.378328 0.381160 0.839700
  H 1.571851 0.944102 -1.199755
  H 4.135827 0.468260 1.505488
  H 3.660002 -1.186549 1.181385
  H 1.602509 -0.848096 2.591632
  H 2.146052 0.792456 2.948062
  H 3.672705 -1.766525 3.636858
  H 2.771131 -0.769331 4.778996
  H 4.217582 -0.128471 3.998600
  H 3.203154 -1.522158 -2.062475
  H 2.385111 -0.355929 -3.104516
  H 4.659762 1.567598 -0.633593
  H 4.635839 0.162900 -3.350302
 25
 61.406698
  C 1.126336 0.846166 0.257913
  C 2.400578 0.355309 0.248832
  C 3.223912 -0.159990 1.382700
  C 2.479752 -0.239961 2.714265
  C 3.368227 -0.802143 3.817548
  C 2.876557 0.435505 -1.173852
  C 2.467536 -0.760567 -2.060509
  H 1.488614 -1.139001 -1.776343
  C 4.227718 0.979554 -1.421724
  C 4.982968 0.782103 -2.500081
  H 5.944959 1.255401 -2.605347
  H 0.963489 1.892498 0.062869
  H 0.355595 0.473215 0.936695
  H 1.806582 0.953386 -1.356772
  H 4.082926 0.513409 1.479103
  H 3.635517 -1.148780 1.138707
  H 1.599806 -0.874638 2.599339
  H 2.136844 0.758653 2.993371
  H 3.698705 -1.808184 3.567657
  H 2.827778 -0.844373 4.760374
  H 4.248590 -0.177512 3.955084
  H 3.188741 -1.575926 -1.954242
  H 2.445318 -0.464980 -3.105457
  H 4.589759 1.645623 -0.645974
  H 4.678093 0.151992 -3.317330
 25
 35.836211
  C 1.089156 0.944934 0.337755
  C 2.294228 0.371276 0.226757
  C 3.140014 -0.218703 1.306680
  C 2.487145 -0.249256 2.685330
  C 3.419805 -0.852262 3.728751
  C 2.810540 0.467040 -1.207457
  C 2.540927 -0.835620 -1.987448
  H 1.570185 -1.242479 -1.716291
  C 4.155009 1.060213 -1.399841
  C 4.982889 0.827157 -2.405100
  H 5.927948 1.338055 -2.482974
  H 0.907351 1.936991 -0.038121
  H 0.372966 0.689892 1.114007
  H 1.874519 0.995850 -1.510344
  H 4.049814 0.388832 1.341391
  H 3.458747 -1.234109 1.038718
  H 1.567810 -0.835228 2.638422
  H 2.220637 0.768489 2.978494
  H 3.689974 -1.870830 3.457291
  H 2.939735 -0.874072 4.704444
  H 4.333590 -0.266796 3.809782
  H 3.298991 -1.589530 -1.769058
  H 2.556370 -0.636677 -3.054884
  H 4.422646 1.807116 -0.660594
  H 4.773029 0.107299 -3.176866
 25
 17.898239
  C 1.040790 0.983883 0.394244
  C 2.237244 0.440802 0.209262
  C 3.112328 -0.178360 1.254418
  C 2.498066 -0.264554 2.647949
  C 3.462523 -0.902172 3.640498
  C 2.766750 0.505425 -1.216245
  C 2.557060 -0.856970 -1.897973
  H 1.566440 -1.237569 -1.663316
  C 4.123814 1.097954 -1.386024
  C 5.016169 0.787710 -2.337154
  H 5.971955 1.283306 -2.393906
  H 0.713042 1.857162 -0.144187
  H 0.414863 0.774239 1.250612
  H 1.938014 1.095584 -1.642200
  H 4.015234 0.439603 1.289984
  H 3.433951 -1.178650 0.943985
  H 1.581315 -0.855428 2.604026
  H 2.233248 0.738492 2.988495
  H 3.720758 -1.911998 3.328255
  H 3.014989 -0.953754 4.630338
  H 4.380125 -0.321371 3.709799
  H 3.294176 -1.584766 -1.561286
  H 2.646353 -0.751198 -2.975401
  H 4.362706 1.875911 -0.668443
  H 4.834592 0.031424 -3.082349
 25
 8.170088
  C 1.001707 0.996834 0.438203
  C 2.193954 0.473015 0.187110
  C 3.100826 -0.153306 1.204949
  C 2.523177 -0.269484 2.612046
  C 3.519523 -0.917891 3.565830
  C 2.724053 0.540697 -1.232585
  C 2.532354 -0.832554 -1.891987
  H 1.523440 -1.191147 -1.702943
  C 4.110196 1.091147 -1.342780
  C 5.046197 0.702685 -2.188595
  H 6.014699 1.173784 -2.208760
  H 0.533623 1.705221 -0.226792
  H 0.458310 0.812109 1.353604
  H 2.005686 1.193069 -1.734267
  H 4.003544 0.464968 1.238384
  H 3.416631 -1.144912 0.865409
  H 1.610262 -0.867508 2.582370
  H 2.262376 0.724625 2.980336
  H 3.780147 -1.918242 3.226052
  H 3.098041 -0.995431 4.565446
  H 4.432473 -0.328576 3.623964
  H 3.239693 -1.558204 -1.496105
  H 2.677330 -0.759588 -2.966721
  H 4.319970 1.902824 -0.655689
  H 4.897778 -0.095619 -2.894871
 25
 5.385845
  C 1.048788 1.115181 0.458987
  C 2.187744 0.502581 0.178880
  C 3.061696 -0.201851 1.176201
  C 2.563354 -0.182758 2.618004
  C 3.452802 -1.032221 3.519377
  C 2.684529 0.490802 -1.260354
  C 2.676243 -0.943864 -1.799096
  H 1.711023 -1.401563 -1.594138
  C 4.002906 1.190336 -1.392779
  C 4.992192 0.853108 -2.198570
  H 5.915397 1.405503 -2.221334
  H 0.500188 1.663913 -0.288451
  H 0.619860 1.113473 1.444453
  H 1.901716 1.034997 -1.798849
  H 4.050739 0.265578 1.123774
  H 3.195846 -1.242596 0.869269
  H 1.540257 -0.560695 2.660205
  H 2.557502 0.844841 2.989220
  H 3.458224 -2.069785 3.190418
  H 3.094902 -1.003963 4.546312
  H 4.476152 -0.663701 3.498825
  H 3.458317 -1.542115 -1.342649
  H 2.829577 -0.940262 -2.875926
  H 4.114192 2.045146 -0.736385
  H 4.931849 0.008428 -2.863785
 25
 3.837759
  C 1.024672 1.129748 0.484281
  C 2.133667 0.488174 0.155231
  C 3.011624 -0.252024 1.127440
  C 2.587039 -0.182412 2.592092
  C 3.534868 -0.985363 3.476363
  C 2.626534 0.486083 -1.278891
  C 2.645959 -0.924993 -1.865772
  H 1.687658 -1.410057 -1.686728
  C 3.954714 1.191382 -1.349185
  C 5.033989 0.787520 -1.991814
  H 5.938914 1.373975 -1.992288
  H 0.437582 1.651307 -0.253725
  H 0.644776 1.165489 1.490593
  H 1.915336 1.083910 -1.866870
  H 4.028733 0.143683 1.029987
  H 3.053808 -1.303735 0.827004
  H 1.575014 -0.577980 2.699116
  H 2.581556 0.858945 2.921948
  H 3.537573 -2.033225 3.182491
  H 3.230972 -0.923481 4.519263
  H 4.550519 -0.604870 3.392812
  H 3.431305 -1.525620 -1.416550
  H 2.813393 -0.883701 -2.940088
  H 3.973046 2.130944 -0.810562
  H 5.072742 -0.135184 -2.544539
