 28
 0.000000
  C 0.960082 0.148472 0.421478
  C 2.433079 0.141064 0.402283
  C 3.232928 0.605265 1.556884
  C 2.472103 1.097511 2.782298
  H 3.165020 1.407788 3.554186
  C 3.037192 -0.326612 -0.761861
  C 4.418964 -0.414402 -0.981172
  C 5.086152 -0.861506 -2.095811
  C 4.614319 -1.381352 -3.391905
  C 3.130716 -1.509188 -3.711656
  C 2.935003 -2.073002 -5.117482
  H 6.166733 -0.848720 -2.064065
  H 0.539239 0.520833 1.347985
  H 0.583077 -0.861587 0.254110
  H 0.582611 0.761492 -0.398340
  H 3.891148 1.411544 1.213785
  H 3.891548 -0.213930 1.867023
  H 1.839605 0.308969 3.185662
  H 1.839304 1.945713 2.528027
  H 2.371851 -0.641908 -1.546497
  H 5.040117 -0.083789 -0.157999
  H 5.082703 -2.367019 -3.513661
  H 5.083232 -0.753404 -4.161043
  H 2.648739 -0.531503 -3.665795
  H 2.648267 -2.183964 -3.003001
  H 3.382761 -1.422840 -5.865637
  H 1.874868 -2.162480 -5.341348
  H 3.382339 -3.060156 -5.208923
 28
 1.141008
  C 0.963783 0.027347 0.466206
  C 2.433086 0.093245 0.429936
  C 3.222458 0.672694 1.537141
  C 2.450985 1.209570 2.733356
  H 3.152153 1.600867 3.466463
  C 3.062004 -0.397467 -0.705838
  C 4.441405 -0.528284 -0.900089
  C 5.061074 -0.946466 -2.056674
  C 4.581172 -1.388510 -3.371963
  C 3.101105 -1.470314 -3.724064
  C 2.930840 -1.969618 -5.158383
  H 6.144772 -0.963502 -2.009005
  H 0.537608 0.434719 1.374218
  H 0.637773 -1.007449 0.346024
  H 0.552028 0.555454 -0.395946
  H 3.837717 1.479834 1.122529
  H 3.941032 -0.080451 1.879519
  H 1.868936 0.428667 3.216318
  H 1.788204 2.022225 2.446610
  H 2.507653 -0.751953 -1.553634
  H 5.123849 -0.288037 -0.096161
  H 5.029706 -2.380315 -3.530429
  H 5.091191 -0.759171 -4.114183
  H 2.639260 -0.484401 -3.650387
  H 2.591851 -2.170973 -3.060436
  H 3.411820 -1.296348 -5.865114
  H 1.876309 -2.030483 -5.416295
  H 3.365700 -2.959395 -5.281704
 28
 4.124451
  C 0.975801 -0.119491 0.525402
  C 2.431974 0.017315 0.454329
  C 3.214683 0.720577 1.495978
  C 2.435194 1.353185 2.640206
  H 3.129602 1.827273 3.326228
  C 3.068238 -0.516793 -0.651943
  C 4.446737 -0.666876 -0.852042
  C 5.071705 -1.042338 -2.021670
  C 4.598918 -1.405573 -3.367862
  C 3.120642 -1.423345 -3.732508
  C 2.916049 -1.830652 -5.188113
  H 6.144181 -1.105140 -1.956946
  H 0.547906 0.343770 1.406010
  H 0.700182 -1.176145 0.505980
  H 0.522480 0.325603 -0.365439
  H 3.813514 1.494302 1.008965
  H 3.937852 0.011045 1.902811
  H 1.871886 0.612245 3.201891
  H 1.754579 2.119944 2.278125
  H 2.562765 -0.955183 -1.490816
  H 5.127751 -0.442988 -0.038744
  H 5.021056 -2.398623 -3.574999
  H 5.121202 -0.727295 -4.058334
  H 2.663249 -0.444016 -3.563944
  H 2.567738 -2.127070 -3.101799
  H 3.416576 -1.135131 -5.860173
  H 1.857343 -1.839507 -5.434491
  H 3.317481 -2.824706 -5.375395
 28
 9.825339
  C 0.958160 -0.158151 0.559598
  C 2.422628 0.005716 0.455074
  C 3.217326 0.737690 1.465647
  C 2.453224 1.356471 2.631700
  H 3.146402 1.874535 3.287786
  C 3.048512 -0.516016 -0.657332
  C 4.438474 -0.697672 -0.824278
  C 5.054172 -1.048937 -2.004700
  C 4.569612 -1.390450 -3.348694
  C 3.089100 -1.399992 -3.716611
  C 2.938984 -1.808665 -5.185215
  H 6.139908 -1.120872 -1.926499
  H 0.538318 0.304446 1.430442
  H 0.697707 -1.211467 0.535184
  H 0.485238 0.276457 -0.336887
  H 3.763671 1.538073 0.948643
  H 3.980719 0.062848 1.847283
  H 1.925835 0.607099 3.208382
  H 1.727761 2.088002 2.281004
  H 2.656481 -0.949723 -1.560125
  H 5.136595 -0.520315 -0.020555
  H 4.971086 -2.386078 -3.558763
  H 5.103215 -0.727732 -4.047229
  H 2.660786 -0.409412 -3.598356
  H 2.548655 -2.132224 -3.118939
  H 3.458563 -1.116424 -5.840350
  H 1.891413 -1.817701 -5.469974
  H 3.340592 -2.807312 -5.355741
 28
 14.816656
  C 0.974450 -0.342664 0.672261
  C 2.406173 -0.082861 0.475639
  C 3.179639 0.836149 1.356071
  C 2.426458 1.503439 2.498012
  H 3.119783 2.117542 3.066815
  C 3.032017 -0.641565 -0.589605
  C 4.421588 -0.894311 -0.783338
  C 5.060703 -1.172518 -1.976425
  C 4.593362 -1.410892 -3.336222
  C 3.125590 -1.325202 -3.725994
  C 2.933251 -1.622576 -5.213560
  H 6.138498 -1.266458 -1.872373
  H 0.558428 0.200754 1.517444
  H 0.804478 -1.414602 0.806860
  H 0.430228 -0.059202 -0.239870
  H 3.664137 1.600739 0.743747
  H 4.006053 0.251593 1.770254
  H 1.998941 0.773331 3.184150
  H 1.640042 2.159346 2.131788
  H 2.713906 -1.174355 -1.474996
  H 5.102095 -0.787848 0.066305
  H 4.973322 -2.397215 -3.630767
  H 5.156011 -0.717016 -3.975974
  H 2.714518 -0.341266 -3.495757
  H 2.528239 -2.055633 -3.164203
  H 3.493014 -0.921144 -5.830896
  H 1.879904 -1.573176 -5.484807
  H 3.293574 -2.625330 -5.451270
 28
 15.126107
  C 0.991186 -0.457341 0.762378
  C 2.385086 -0.121704 0.469158
  C 3.136114 0.901205 1.232369
  C 2.431470 1.534995 2.416239
  H 3.113415 2.186436 2.929590
  C 3.014634 -0.716281 -0.571517
  C 4.403444 -0.955553 -0.778641
  C 5.066965 -1.200769 -1.964730
  C 4.620603 -1.370296 -3.348237
  C 3.152096 -1.275449 -3.725571
  C 2.948869 -1.527037 -5.215845
  H 6.154350 -1.285433 -1.839207
  H 0.614493 0.104067 1.615410
  H 0.896200 -1.528687 0.999749
  H 0.370329 -0.232529 -0.100650
  H 3.560980 1.660723 0.568572
  H 4.014989 0.349724 1.622570
  H 2.098083 0.786887 3.119858
  H 1.573398 2.121363 2.109694
  H 2.619796 -1.377293 -1.353393
  H 5.052779 -0.863418 0.094078
  H 4.965579 -2.368764 -3.634068
  H 5.204343 -0.687426 -3.962732
  H 2.751883 -0.288693 -3.468665
  H 2.550126 -2.007268 -3.183113
  H 3.498924 -0.799104 -5.817298
  H 1.896146 -1.456056 -5.474252
  H 3.298864 -2.519890 -5.492864
 28
 18.948812
  C 1.084219 -0.588574 0.750213
  C 2.462491 -0.163537 0.471421
  C 3.128880 0.955094 1.196274
  C 2.326276 1.622122 2.307744
  H 2.918338 2.440586 2.729480
  C 3.159153 -0.766240 -0.509020
  C 4.508230 -1.136785 -0.761570
  C 5.132362 -1.336669 -1.967088
  C 4.621944 -1.418443 -3.339476
  C 3.138415 -1.232528 -3.628156
  C 2.867356 -1.353524 -5.131239
  H 6.206309 -1.450202 -1.895177
  H 0.640298 -0.030324 1.565715
  H 1.066225 -1.659680 0.993464
  H 0.466568 -0.445850 -0.142962
  H 3.385365 1.717409 0.455380
  H 4.067412 0.558829 1.611234
  H 2.102908 0.926357 3.116207
  H 1.399758 2.058412 1.927350
  H 2.738654 -1.424570 -1.256985
  H 5.149248 -1.193140 0.120980
  H 4.930763 -2.385917 -3.747099
  H 5.167002 -0.661378 -3.920544
  H 2.805155 -0.252652 -3.284183
  H 2.542571 -2.005073 -3.133052
  H 3.403982 -0.575454 -5.690741
  H 1.799703 -1.223851 -5.336233
  H 3.178308 -2.329991 -5.512707
 28
 23.241828
  C 1.130428 -0.752855 0.828524
  C 2.482944 -0.274286 0.448106
  C 3.073037 0.979434 0.993474
  C 2.263968 1.716482 2.041919
  H 2.826471 2.586347 2.379786
  C 3.208901 -0.966047 -0.463092
  C 4.571409 -1.288449 -0.717367
  C 5.174948 -1.441761 -1.930712
  C 4.613695 -1.405321 -3.288525
  C 3.140412 -1.093164 -3.509238
  C 2.803597 -1.109256 -4.999079
  H 6.246549 -1.593649 -1.894864
  H 0.674462 -0.124813 1.578054
  H 1.192148 -1.774453 1.212906
  H 0.481373 -0.777866 -0.048279
  H 3.337638 1.647139 0.171395
  H 4.034576 0.673833 1.430988
  H 2.068369 1.088374 2.906155
  H 1.323826 2.074948 1.639747
  H 2.881072 -1.752353 -1.106843
  H 5.216237 -1.410600 0.150573
  H 4.893605 -2.327672 -3.816427
  H 5.199105 -0.639036 -3.818100
  H 2.906896 -0.122795 -3.064893
  H 2.520127 -1.856687 -3.032919
  H 3.380212 -0.356373 -5.539880
  H 1.743710 -0.894516 -5.152039
  H 3.017712 -2.081608 -5.434763
 28
 31.113872
  C 1.247980 -0.883014 0.827685
  C 2.571188 -0.330528 0.437440
  C 3.047328 1.007534 0.898063
  C 2.115685 1.795601 1.805771
  H 2.606021 2.731982 2.065825
  C 3.371028 -1.041763 -0.369844
  C 4.689096 -1.472108 -0.701629
  C 5.244716 -1.577808 -1.963626
  C 4.614538 -1.400014 -3.281107
  C 3.148460 -1.013044 -3.370518
  C 2.714584 -0.863957 -4.821263
  H 6.298361 -1.812092 -1.997326
  H 0.715955 -0.218731 1.505515
  H 1.368964 -1.854756 1.293581
  H 0.634945 -1.030464 -0.053147
  H 3.266719 1.618685 0.019647
  H 4.002246 0.841586 1.415056
  H 1.893998 1.259544 2.725079
  H 1.179262 2.034871 1.312718
  H 3.078166 -1.932669 -0.908393
  H 5.360458 -1.702823 0.099197
  H 4.773758 -2.331139 -3.855387
  H 5.219365 -0.666970 -3.835533
  H 2.972224 -0.066399 -2.849568
  H 2.501814 -1.771259 -2.906931
  H 3.299106 -0.093713 -5.326008
  H 1.663754 -0.579045 -4.876547
  H 2.836874 -1.805163 -5.361062
 28
 42.071227
  C 1.309012 -0.912261 0.730110
  C 2.642913 -0.323480 0.384187
  C 3.045608 1.065126 0.861089
  C 2.022211 1.795430 1.720907
  H 2.423370 2.773066 1.993828
  C 3.504199 -0.993610 -0.327692
  C 4.761891 -1.553354 -0.735601
  C 5.284666 -1.648369 -2.001667
  C 4.608169 -1.422347 -3.286202
  C 3.153870 -0.962945 -3.258462
  C 2.626154 -0.756552 -4.684180
  H 6.319498 -1.959493 -2.079372
  H 0.719907 -0.239857 1.331917
  H 1.443419 -1.837986 1.282567
  H 0.745225 -1.135108 -0.180371
  H 3.259035 1.664932 -0.010341
  H 3.983002 0.964944 1.419524
  H 1.816522 1.252378 2.642085
  H 1.087884 1.957132 1.182988
  H 3.333540 -1.988712 -0.865444
  H 5.420931 -1.853454 0.079540
  H 4.692594 -2.341015 -3.872816
  H 5.208551 -0.698056 -3.847910
  H 3.070892 -0.015005 -2.707884
  H 2.523880 -1.711313 -2.774130
  H 3.194758 0.005904 -5.205428
  H 1.587528 -0.441100 -4.661764
  H 2.683272 -1.671888 -5.255815
 28
 45.434947
  C 1.351453 -0.922799 0.642330
  C 2.717757 -0.340783 0.408042
  C 3.074898 1.061744 0.868364
  C 1.974034 1.821751 1.591302
  H 2.361222 2.802605 1.884183
  C 3.626467 -1.002736 -0.252588
  C 4.802589 -1.627952 -0.730319
  C 5.293522 -1.678278 -2.025240
  C 4.577356 -1.380588 -3.275031
  C 3.120246 -0.951192 -3.183749
  C 2.549595 -0.683831 -4.570788
  H 6.319613 -1.978908 -2.140697
  H 0.717356 -0.235243 1.180072
  H 1.430589 -1.840026 1.219483
  H 0.871616 -1.158329 -0.308611
  H 3.389196 1.638882 -0.008603
  H 3.941197 0.981136 1.531414
  H 1.658892 1.310127 2.491632
  H 1.114640 1.987719 0.948479
  H 3.512123 -2.114890 -0.700890
  H 5.496743 -1.965916 0.036383
  H 4.657066 -2.261491 -3.929261
  H 5.145932 -0.607906 -3.805770
  H 3.036591 -0.046971 -2.586982
  H 2.519725 -1.734505 -2.715187
  H 3.104202 0.112522 -5.074670
  H 1.508110 -0.375006 -4.500995
  H 2.596841 -1.579503 -5.193656
 28
 49.612246
  C 1.353565 -0.914127 0.642285
  C 2.722851 -0.338706 0.407465
  C 3.079292 1.083452 0.847305
  C 1.959229 1.849440 1.531007
  H 2.332046 2.835905 1.802196
  C 3.647538 -1.011747 -0.200217
  C 4.765116 -1.697715 -0.703477
  C 5.287023 -1.681552 -2.033777
  C 4.567121 -1.365138 -3.269758
  C 3.104203 -0.940673 -3.154651
  C 2.523490 -0.633318 -4.536391
  H 6.326728 -1.957166 -2.153603
  H 0.713400 -0.212642 1.162829
  H 1.429082 -1.817915 1.237657
  H 0.883638 -1.170112 -0.305749
  H 3.402422 1.635417 -0.025886
  H 3.930482 1.021245 1.524386
  H 1.635563 1.357247 2.446174
  H 1.105266 1.988912 0.873481
  H 3.724279 -2.308080 -0.832870
  H 5.485475 -1.997699 0.062390
  H 4.646585 -2.229377 -3.943534
  H 5.129386 -0.572690 -3.787777
  H 3.019421 -0.047926 -2.528284
  H 2.507871 -1.737945 -2.706091
  H 3.067692 0.172058 -5.016882
  H 1.483909 -0.333542 -4.455307
  H 2.572561 -1.505096 -5.180284
 28
 50.049682
  C 1.358645 -0.920625 0.674384
  C 2.726710 -0.348661 0.416521
  C 3.074599 1.090206 0.813078
  C 1.936958 1.882491 1.440957
  H 2.307653 2.876315 1.684548
  C 3.654326 -1.025911 -0.169360
  C 4.731709 -1.778926 -0.689743
  C 5.270389 -1.705305 -2.028256
  C 4.550689 -1.349706 -3.260115
  C 3.092477 -0.914539 -3.140274
  C 2.523724 -0.544441 -4.506986
  H 6.308442 -1.979886 -2.144004
  H 0.703882 -0.189384 1.131418
  H 1.438990 -1.780761 1.335778
  H 0.908282 -1.249908 -0.259688
  H 3.418839 1.611264 -0.081004
  H 3.908768 1.050948 1.515438
  H 1.587537 1.424711 2.363047
  H 1.100940 1.999004 0.754788
  H 3.830085 -2.466519 -0.857464
  H 5.458946 -2.049460 0.070888
  H 4.620765 -2.194723 -3.959807
  H 5.119109 -0.555242 -3.764041
  H 3.017025 -0.049364 -2.481264
  H 2.487199 -1.721073 -2.720491
  H 3.081431 0.275049 -4.954575
  H 1.484157 -0.237192 -4.419376
  H 2.563630 -1.392237 -5.188829
