 15
 0.000000
  C 0.881853 0.043430 0.344230
  C 2.351721 0.059391 0.045119
  H 2.996873 0.012582 0.911557
  C 2.931680 0.128006 -1.146132
  C 2.375777 0.207618 -2.540110
  C 0.866869 0.219130 -2.750206
  H 0.656223 0.279886 -3.815080
  H 4.015905 0.129034 -1.167546
  H 0.707373 -0.018843 1.417029
  H 0.396000 -0.815412 -0.113147
  H 0.400849 0.951144 -0.013829
  H 2.792585 -0.637763 -3.099865
  H 2.792137 1.111564 -2.999653
  H 0.407868 1.076519 -2.266971
  H 0.408590 -0.688064 -2.367688
 15
 6.341603
  C 0.862763 0.002160 0.377637
  C 2.304778 0.056027 0.046574
  H 2.984905 0.007884 0.896264
  C 2.908843 0.139309 -1.157325
  C 2.375419 0.220693 -2.548250
  C 0.871047 0.205320 -2.749350
  H 0.652399 0.268770 -3.813375
  H 3.987784 0.159634 -1.155110
  H 0.669090 -0.014976 1.436341
  H 0.312051 -0.794229 -0.096041
  H 0.650701 0.951394 -0.054481
  H 2.809851 -0.609662 -3.108007
  H 2.779960 1.130750 -2.995290
  H 0.394203 1.051113 -2.260451
  H 0.435501 -0.716489 -2.370433
 15
 18.571070
  C 0.869846 0.020892 0.381408
  C 2.286481 0.026751 0.060395
  H 2.974588 -0.074435 0.898634
  C 2.894574 0.137973 -1.132546
  C 2.361849 0.240042 -2.536453
  C 0.851785 0.155011 -2.759916
  H 0.644767 0.236161 -3.820378
  H 3.965159 0.191755 -1.117207
  H 0.649191 -0.005582 1.436525
  H 0.239702 -0.662558 -0.172775
  H 0.938689 1.004063 -0.033330
  H 2.841438 -0.558212 -3.119416
  H 2.728716 1.187964 -2.956438
  H 0.322623 0.959935 -2.255047
  H 0.460909 -0.796853 -2.416680
 15
 32.367768
  C 0.844519 0.015758 0.390335
  C 2.268159 0.038782 0.053391
  H 2.955072 -0.055011 0.898773
  C 2.894014 0.145913 -1.140957
  C 2.363725 0.247160 -2.543056
  C 0.855300 0.134005 -2.759373
  H 0.639027 0.219753 -3.821982
  H 3.973252 0.198384 -1.116104
  H 0.620487 -0.048888 1.444740
  H 0.178245 -0.569721 -0.215415
  H 1.117588 0.994198 0.021572
  H 2.854460 -0.534748 -3.131935
  H 2.707534 1.199872 -2.955843
  H 0.315223 0.920913 -2.244757
  H 0.487169 -0.830185 -2.421947
 15
 44.317188
  C 0.825201 0.011891 0.412837
  C 2.253060 0.054266 0.046636
  H 2.933754 -0.036229 0.893604
  C 2.891372 0.154039 -1.150778
  C 2.367850 0.248490 -2.554693
  C 0.861769 0.113178 -2.772031
  H 0.642895 0.197724 -3.831078
  H 3.967781 0.215556 -1.114481
  H 0.615831 -0.115825 1.460868
  H 0.116209 -0.459723 -0.237895
  H 1.261597 0.985110 0.112563
  H 2.870792 -0.524314 -3.145305
  H 2.697402 1.211041 -2.967997
  H 0.312059 0.891438 -2.255273
  H 0.510110 -0.856497 -2.436364
 15
 53.792726
  C 0.819228 -0.000625 0.414608
  C 2.243798 0.069817 0.041492
  H 2.904034 -0.012269 0.889611
  C 2.892296 0.162935 -1.145822
  C 2.368115 0.251047 -2.563089
  C 0.873458 0.106982 -2.768748
  H 0.648063 0.184886 -3.825001
  H 3.958632 0.227361 -1.103117
  H 0.613439 -0.148620 1.458952
  H 0.091089 -0.416229 -0.258541
  H 1.369643 0.964505 0.138610
  H 2.876164 -0.526356 -3.159277
  H 2.686295 1.208761 -2.981164
  H 0.314967 0.896721 -2.244204
  H 0.531873 -0.863868 -2.426368
 15
 60.142066
  C 0.807421 -0.023925 0.424644
  C 2.235894 0.091990 0.040825
  H 2.904480 0.012229 0.896279
  C 2.894459 0.174322 -1.160063
  C 2.375822 0.251144 -2.567580
  C 0.875073 0.099703 -2.772605
  H 0.646843 0.167528 -3.832421
  H 3.973586 0.239949 -1.109579
  H 0.604051 -0.213715 1.460539
  H 0.060091 -0.331479 -0.273562
  H 1.447045 0.954996 0.200111
  H 2.885749 -0.527751 -3.155514
  H 2.691267 1.209978 -2.994812
  H 0.323773 0.884844 -2.261755
  H 0.534482 -0.870643 -2.417830
 15
 65.885781
  C 0.806876 -0.056510 0.428080
  C 2.233638 0.113025 0.049051
  H 2.904964 0.030837 0.903638
  C 2.898407 0.179777 -1.163050
  C 2.380288 0.249826 -2.568543
  C 0.878908 0.097315 -2.773601
  H 0.650418 0.155681 -3.837363
  H 3.978005 0.248665 -1.109413
  H 0.594469 -0.249457 1.460185
  H 0.049343 -0.291322 -0.285190
  H 1.509664 0.957764 0.222484
  H 2.889802 -0.531693 -3.151731
  H 2.696023 1.205774 -3.004634
  H 0.327018 0.889042 -2.268624
  H 0.539316 -0.865008 -2.411665
 15
 70.465326
  C 0.810980 -0.096900 0.426568
  C 2.233849 0.133303 0.059196
  H 2.905276 0.044050 0.910054
  C 2.904735 0.181039 -1.163635
  C 2.385326 0.249434 -2.567548
  C 0.882863 0.099722 -2.770454
  H 0.652546 0.154717 -3.837837
  H 3.981722 0.254688 -1.107698
  H 0.582890 -0.263934 1.459170
  H 0.046892 -0.276909 -0.296121
  H 1.560617 0.973580 0.223089
  H 2.891626 -0.534980 -3.148889
  H 2.703020 1.204403 -3.010048
  H 0.337514 0.892306 -2.272438
  H 0.539164 -0.861947 -2.401540
 15
 73.555544
  C 0.818580 -0.146368 0.424125
  C 2.233686 0.152438 0.070282
  H 2.904164 0.053137 0.915416
  C 2.911461 0.178758 -1.164538
  C 2.391851 0.248802 -2.565206
  C 0.885010 0.102042 -2.769169
  H 0.655741 0.156331 -3.834431
  H 3.989298 0.259051 -1.106222
  H 0.572496 -0.265826 1.457419
  H 0.046072 -0.273111 -0.302633
  H 1.607342 1.006462 0.213444
  H 2.897435 -0.536465 -3.146553
  H 2.711646 1.203771 -3.009243
  H 0.339924 0.898074 -2.271290
  H 0.538772 -0.857895 -2.400014
 15
 75.438703
  C 0.828364 -0.188723 0.422824
  C 2.231136 0.167620 0.080897
  H 2.906958 0.058516 0.927535
  C 2.911789 0.177681 -1.160053
  C 2.392816 0.249540 -2.563661
  C 0.889994 0.105812 -2.772136
  H 0.664723 0.159723 -3.836701
  H 3.986407 0.265364 -1.100217
  H 0.568010 -0.263673 1.457655
  H 0.054050 -0.276619 -0.306774
  H 1.657894 1.043996 0.198091
  H 2.897203 -0.534060 -3.142676
  H 2.715397 1.205283 -3.008468
  H 0.344901 0.904145 -2.275907
  H 0.540379 -0.853164 -2.402715
 15
 75.624656
  C 0.839727 -0.236977 0.422948
  C 2.221793 0.182637 0.091325
  H 2.900977 0.066991 0.936915
  C 2.912034 0.176140 -1.160022
  C 2.395551 0.251665 -2.560910
  C 0.894520 0.112088 -2.772762
  H 0.672113 0.169115 -3.838609
  H 3.987691 0.271120 -1.095607
  H 0.566978 -0.260693 1.458795
  H 0.063100 -0.291445 -0.307544
  H 1.715088 1.102538 0.172011
  H 2.899774 -0.531861 -3.140577
  H 2.721016 1.206169 -3.005501
  H 0.351550 0.910746 -2.275891
  H 0.541870 -0.846751 -2.405408
 15
 74.970638
  C 0.854553 -0.287194 0.429676
  C 2.210441 0.201341 0.098701
  H 2.893139 0.087929 0.940751
  C 2.913192 0.178445 -1.159217
  C 2.401303 0.255013 -2.560598
  C 0.899995 0.123564 -2.776248
  H 0.680365 0.181412 -3.841326
  H 3.986131 0.277016 -1.088711
  H 0.569976 -0.258128 1.463239
  H 0.070034 -0.322316 -0.296037
  H 1.771426 1.161511 0.136832
  H 2.903818 -0.531006 -3.138586
  H 2.734008 1.208049 -3.006570
  H 0.360621 0.925871 -2.279546
  H 0.541323 -0.832693 -2.408918
 15
 74.460280
  C 0.862712 -0.306105 0.428652
  C 2.200751 0.217796 0.103770
  H 2.886375 0.091912 0.944938
  C 2.918809 0.178183 -1.162810
  C 2.407754 0.263722 -2.561187
  C 0.906855 0.124977 -2.773860
  H 0.681907 0.198971 -3.838082
  H 3.990417 0.297786 -1.086185
  H 0.565448 -0.247240 1.459296
  H 0.075286 -0.324302 -0.296606
  H 1.845106 1.213670 0.106715
  H 2.915866 -0.514293 -3.145666
  H 2.734237 1.220368 -3.000802
  H 0.364604 0.914482 -2.261248
  H 0.556158 -0.839664 -2.419900
