 25
 0.000000
  C 0.959565 0.146052 0.415361
  C 2.432312 0.139624 0.398767
  C 3.230465 0.604175 1.554474
  C 2.467000 1.095551 2.777917
  H 3.163317 1.405089 3.548296
  C 3.040268 -0.327588 -0.764193
  C 4.423203 -0.413002 -0.977727
  C 5.089691 -0.860414 -2.093304
  C 4.625704 -1.380323 -3.389496
  C 3.144238 -1.508211 -3.708580
  H 3.021952 -1.909258 -4.708656
  H 6.170521 -0.843020 -2.050264
  H 0.538072 0.518229 1.341376
  H 0.583577 -0.863833 0.243989
  H 0.583198 0.756246 -0.407216
  H 3.890307 1.409255 1.211664
  H 3.890610 -0.214044 1.863920
  H 1.836141 0.308302 3.185607
  H 1.835952 1.945943 2.527798
  H 2.377041 -0.644282 -1.552009
  H 5.051185 -0.084372 -0.159437
  H 5.099699 -2.363644 -3.510322
  H 5.099887 -0.753203 -4.156367
  H 2.654670 -0.537540 -3.674830
  H 2.654601 -2.186594 -3.013542
 25
 7.715043
  C 0.840685 0.147636 0.419094
  C 2.472743 0.139910 0.399346
  C 3.262968 0.603105 1.551896
  C 2.494083 1.092905 2.771569
  H 3.188537 1.403731 3.545345
  C 3.068992 -0.325912 -0.760261
  C 4.451360 -0.414033 -0.980572
  C 5.108568 -0.862588 -2.098967
  C 4.637172 -1.380645 -3.390300
  C 3.154223 -1.505293 -3.700950
  H 3.026805 -1.906723 -4.701829
  H 6.190612 -0.846625 -2.059623
  H 0.426583 0.519955 1.345568
  H 0.470050 -0.860952 0.248547
  H 0.469749 0.757591 -0.401930
  H 3.923183 1.408682 1.210761
  H 3.923456 -0.214373 1.862823
  H 1.863430 0.305210 3.177331
  H 1.863276 1.942350 2.519844
  H 2.400561 -0.641157 -1.544545
  H 5.085796 -0.087155 -0.166691
  H 5.109506 -2.364556 -3.514159
  H 5.109575 -0.755210 -4.159856
  H 2.666281 -0.534104 -3.665599
  H 2.666359 -2.182958 -3.004310
 25
 23.694438
  C 0.747863 0.148395 0.420044
  C 2.539345 0.143091 0.406849
  C 3.292363 0.606878 1.561566
  C 2.491105 1.088729 2.762006
  H 3.166228 1.406185 3.552894
  C 3.107146 -0.320939 -0.748532
  C 4.490326 -0.416092 -0.986488
  C 5.127179 -0.869148 -2.116046
  C 4.637624 -1.383698 -3.397905
  C 3.151476 -1.501432 -3.690194
  H 3.013070 -1.903098 -4.691186
  H 6.211004 -0.856696 -2.085916
  H 0.353479 0.521449 1.348547
  H 0.403037 -0.861039 0.251076
  H 0.402976 0.760365 -0.400307
  H 3.953868 1.417889 1.232955
  H 3.954029 -0.206034 1.885044
  H 1.859231 0.295925 3.153199
  H 1.859191 1.931950 2.496554
  H 2.425828 -0.632624 -1.524128
  H 5.140442 -0.093390 -0.183200
  H 5.106512 -2.368957 -3.529070
  H 5.106185 -0.762352 -4.173930
  H 2.666658 -0.529060 -3.651530
  H 2.667208 -2.177724 -2.990073
 25
 41.181300
  C 0.642227 0.149734 0.422718
  C 2.593106 0.148289 0.419664
  C 3.320746 0.619220 1.592501
  C 2.491852 1.094917 2.777979
  H 3.147931 1.417450 3.581788
  C 3.145692 -0.322831 -0.753461
  C 4.526641 -0.423205 -1.004545
  C 5.147748 -0.878907 -2.140801
  C 4.643231 -1.391807 -3.418171
  C 3.154236 -1.504371 -3.696770
  H 3.007261 -1.905472 -4.696111
  H 6.231385 -0.868993 -2.117357
  H 0.265378 0.525872 1.358929
  H 0.324024 -0.869863 0.254270
  H 0.324178 0.769570 -0.404251
  H 3.983799 1.435602 1.275961
  H 3.983954 -0.189269 1.928277
  H 1.858636 0.296774 3.156423
  H 1.858589 1.933254 2.499810
  H 2.455790 -0.631756 -1.522315
  H 5.187176 -0.103519 -0.208859
  H 5.109422 -2.377869 -3.555387
  H 5.108797 -0.774013 -4.199255
  H 2.671740 -0.530890 -3.655419
  H 2.672633 -2.179696 -2.993790
 25
 58.539996
  C 0.539728 0.148309 0.418451
  C 2.649953 0.147683 0.418133
  C 3.352510 0.616955 1.587117
  C 2.504702 1.087006 2.758823
  H 3.146925 1.413475 3.572629
  C 3.172483 -0.317304 -0.739837
  C 4.549954 -0.421233 -0.999975
  C 5.160323 -0.879669 -2.143182
  C 4.643630 -1.390418 -3.414791
  C 3.152335 -1.498066 -3.680299
  H 2.996437 -1.899012 -4.678972
  H 6.244546 -0.871969 -2.125657
  H 0.187626 0.526449 1.359693
  H 0.248525 -0.874809 0.252828
  H 0.248940 0.772824 -0.408865
  H 4.015623 1.435952 1.277864
  H 4.015794 -0.188409 1.929833
  H 1.870840 0.284833 3.126800
  H 1.870797 1.921046 2.470453
  H 2.474436 -0.623152 -1.501123
  H 5.217557 -0.103302 -0.208746
  H 5.106969 -2.377127 -3.557232
  H 5.106029 -0.775709 -4.200238
  H 2.672483 -0.523377 -3.635924
  H 2.673730 -2.172255 -2.974132
 25
 74.403798
  C 0.420764 0.154951 0.434438
  C 2.690325 0.156205 0.439386
  C 3.374328 0.633650 1.628866
  C 2.500656 1.098362 2.787563
  H 3.124325 1.429816 3.613821
  C 3.207752 -0.323529 -0.755324
  C 4.593211 -0.433934 -1.031872
  C 5.188561 -0.894029 -2.179248
  C 4.656637 -1.402918 -3.445932
  C 3.162580 -1.504830 -3.696723
  H 2.996116 -1.905196 -4.693708
  H 6.272823 -0.889627 -2.170128
  H 0.090231 0.536279 1.383622
  H 0.156500 -0.876429 0.270220
  H 0.157049 0.786455 -0.397551
  H 4.038023 1.458640 1.330793
  H 4.038313 -0.168268 1.983722
  H 1.865988 0.290909 3.142501
  H 1.865760 1.927181 2.486251
  H 2.500827 -0.627672 -1.512254
  H 5.269481 -0.118851 -0.247885
  H 5.115954 -2.390982 -3.594200
  H 5.114853 -0.791281 -4.236618
  H 2.686289 -0.528686 -3.648530
  H 2.687710 -2.177405 -2.986680
 25
 84.796441
  C 0.391352 0.140176 0.392034
  C 2.819715 0.155899 0.441142
  C 3.401081 0.649717 1.674323
  C 2.439045 1.091796 2.772739
  H 3.001322 1.436984 3.635500
  C 3.260067 -0.313201 -0.727190
  C 4.645095 -0.437745 -1.045658
  C 5.195158 -0.900806 -2.201395
  C 4.620767 -1.408781 -3.462059
  C 3.118234 -1.492934 -3.662354
  H 2.920366 -1.892282 -4.654602
  H 6.279600 -0.906462 -2.220694
  H 0.128837 0.528510 1.358909
  H 0.225688 -0.909579 0.234973
  H 0.228132 0.790776 -0.447157
  H 4.050607 1.496858 1.414761
  H 4.049599 -0.142385 2.072887
  H 1.811116 0.264390 3.090589
  H 1.812359 1.910234 2.430143
  H 2.539421 -0.612364 -1.468932
  H 5.334065 -0.125668 -0.273867
  H 5.064071 -2.400057 -3.625327
  H 5.060447 -0.804761 -4.266836
  H 2.653878 -0.511483 -3.608110
  H 2.658082 -2.165862 -2.943177
 25
 90.207122
  C 0.348281 0.126436 0.362125
  C 2.934344 0.165121 0.461365
  C 3.418894 0.666083 1.713098
  C 2.388921 1.090278 2.767750
  H 2.899073 1.446095 3.657621
  C 3.313650 -0.291931 -0.681072
  C 4.724671 -0.443229 -1.057762
  C 5.220535 -0.912669 -2.227966
  C 4.593924 -1.421266 -3.492080
  C 3.079992 -1.483429 -3.639951
  H 2.839325 -1.878961 -4.624698
  H 6.305081 -0.934088 -2.284436
  H 0.104883 0.514012 1.329849
  H 0.248620 -0.928923 0.198912
  H 0.248088 0.777417 -0.484386
  H 4.054857 1.532698 1.490039
  H 4.053831 -0.114375 2.151855
  H 1.763078 0.248939 3.049047
  H 1.764674 1.893905 2.389807
  H 2.579363 -0.584538 -1.411909
  H 5.434262 -0.140199 -0.301211
  H 5.012137 -2.419057 -3.668697
  H 5.009351 -0.821473 -4.310275
  H 2.634269 -0.494152 -3.566994
  H 2.637572 -2.149416 -2.902845
 25
 91.767413
  C 0.370125 0.091985 0.279178
  C 3.106842 0.184030 0.505579
  C 3.442083 0.699580 1.786492
  C 2.300882 1.079638 2.742827
  H 2.717876 1.452773 3.672647
  C 3.429154 -0.279938 -0.647967
  C 4.815394 -0.460771 -1.092710
  C 5.223330 -0.930428 -2.265981
  C 4.524518 -1.426874 -3.505463
  C 3.001161 -1.452383 -3.567697
  H 2.697362 -1.841244 -4.538132
  H 6.304201 -0.975820 -2.380042
  H 0.120084 0.478521 1.239949
  H 0.364508 -0.966055 0.121491
  H 0.363027 0.745883 -0.567512
  H 4.046786 1.598392 1.621621
  H 4.049924 -0.062237 2.287527
  H 1.689269 0.212079 2.964738
  H 1.685606 1.858173 2.305985
  H 2.686186 -0.566285 -1.364281
  H 5.553251 -0.170154 -0.364738
  H 4.903184 -2.436457 -3.694313
  H 4.902574 -0.826673 -4.339272
  H 2.585392 -0.452322 -3.473441
  H 2.586196 -2.110719 -2.808726
 25
 93.996607
  C 0.286633 0.072823 0.232180
  C 3.178050 0.185808 0.510228
  C 3.464841 0.707213 1.804532
  C 2.285527 1.071575 2.722655
  H 2.667483 1.450156 3.664853
  C 3.479072 -0.278755 -0.643591
  C 4.858091 -0.469056 -1.112466
  C 5.233148 -0.942805 -2.295819
  C 4.503437 -1.423476 -3.496850
  C 2.981775 -1.425497 -3.502375
  H 2.638078 -1.809063 -4.459899
  H 6.305095 -1.000753 -2.439835
  H 0.037338 0.462926 1.200922
  H 0.314485 -0.988370 0.079469
  H 0.312865 0.731818 -0.613485
  H 4.060462 1.619534 1.658775
  H 4.064579 -0.050351 2.328949
  H 1.679049 0.193017 2.924811
  H 1.674362 1.843807 2.263488
  H 2.721634 -0.566594 -1.362633
  H 5.611441 -0.182440 -0.394864
  H 4.861226 -2.438498 -3.695439
  H 4.861430 -0.826373 -4.341223
  H 2.584831 -0.418530 -3.394345
  H 2.584766 -2.079057 -2.728734
 25
 95.219184
  C 0.204320 0.065173 0.214725
  C 3.250379 0.198236 0.540288
  C 3.485516 0.718552 1.831346
  C 2.266744 1.064145 2.704045
  H 2.608651 1.448255 3.659331
  C 3.527696 -0.267920 -0.617157
  C 4.895190 -0.471086 -1.117227
  C 5.239643 -0.947076 -2.305004
  C 4.480100 -1.427480 -3.506047
  C 2.953888 -1.420638 -3.492163
  H 2.595562 -1.802889 -4.446479
  H 6.311721 -1.013636 -2.468333
  H -0.041473 0.452650 1.176703
  H 0.261384 -0.991692 0.067518
  H 0.259192 0.724704 -0.624328
  H 4.067896 1.639472 1.706079
  H 4.072900 -0.030412 2.376522
  H 1.668406 0.176820 2.882845
  H 1.663000 1.825824 2.221896
  H 2.765048 -0.549873 -1.321148
  H 5.661700 -0.191124 -0.415604
  H 4.827496 -2.446732 -3.709221
  H 4.828869 -0.831187 -4.356709
  H 2.563838 -0.411276 -3.381402
  H 2.562630 -2.073286 -2.714934
 25
 95.956898
  C 0.120126 0.047419 0.171609
  C 3.319659 0.202619 0.550631
  C 3.507131 0.727730 1.852848
  C 2.246697 1.054352 2.679628
  H 2.546412 1.443632 3.646920
  C 3.576970 -0.263647 -0.606446
  C 4.933373 -0.477930 -1.133549
  C 5.244024 -0.958083 -2.331089
  C 4.451143 -1.425581 -3.500781
  C 2.930257 -1.397854 -3.436834
  H 2.536882 -1.774703 -4.378074
  H 6.308086 -1.036772 -2.523195
  H -0.128624 0.436980 1.138295
  H 0.203308 -1.010618 0.029656
  H 0.200817 0.711103 -0.664746
  H 4.077699 1.660786 1.748140
  H 4.083650 -0.014988 2.421432
  H 1.656313 0.156367 2.835267
  H 1.649897 1.806986 2.173056
  H 2.800409 -0.543869 -1.305856
  H 5.717515 -0.203841 -0.446175
  H 4.777995 -2.447509 -3.712353
  H 4.780249 -0.833519 -4.359330
  H 2.557745 -0.383393 -3.314946
  H 2.555633 -2.046156 -2.648122
 25
 96.276892
  C 0.030582 0.037402 0.148405
  C 3.383505 0.214132 0.578287
  C 3.524838 0.737051 1.874555
  C 2.228528 1.042817 2.650566
  H 2.485441 1.436417 3.628075
  C 3.622651 -0.253753 -0.582420
  C 4.965641 -0.480271 -1.138714
  C 5.245999 -0.963071 -2.341930
  C 4.422051 -1.426510 -3.502430
  C 2.898455 -1.387089 -3.411680
  H 2.485509 -1.761364 -4.346960
  H 6.306945 -1.051013 -2.555370
  H -0.221073 0.424742 1.109373
  H 0.133906 -1.016659 0.011258
  H 0.130945 0.701421 -0.682024
  H 4.081556 1.677971 1.789570
  H 4.088298 0.002865 2.462990
  H 1.647667 0.135651 2.782579
  H 1.640650 1.785060 2.120363
  H 2.836839 -0.528898 -1.269193
  H 5.764425 -0.213364 -0.468412
  H 4.736777 -2.453475 -3.719695
  H 4.740025 -0.835222 -4.368553
  H 2.534971 -0.369168 -3.285079
  H 2.531818 -2.034176 -2.617268
 25
 96.368181
  C -0.068856 0.020791 0.108719
  C 3.437438 0.218236 0.587458
  C 3.541476 0.745693 1.894234
  C 2.210501 1.033104 2.626195
  H 2.428185 1.430247 3.612026
  C 3.661421 -0.249238 -0.571515
  C 4.991634 -0.486369 -1.152959
  C 5.242013 -0.972278 -2.363195
  C 4.388915 -1.424817 -3.497513
  C 2.872286 -1.368339 -3.366512
  H 2.431324 -1.737547 -4.289742
  H 6.295444 -1.070686 -2.601221
  H -0.327695 0.409270 1.072096
  H 0.048785 -1.034140 -0.025160
  H 0.045389 0.687384 -0.720267
  H 4.087118 1.696417 1.827042
  H 4.094688 0.017441 2.502395
  H 1.638272 0.117174 2.737402
  H 1.630376 1.766618 2.074675
  H 2.862356 -0.521004 -1.249874
  H 5.807087 -0.225890 -0.498027
  H 4.686142 -2.453308 -3.721304
  H 4.690361 -0.837331 -4.369432
  H 2.523671 -0.346983 -3.231544
  H 2.519471 -2.011716 -2.563741
