 17
 0.000000
  H 1.434046 -0.076173 0.038520
  C 2.506363 -0.083411 0.024312
  C 3.219627 -0.594834 -0.979699
  C 4.657345 -0.605632 -1.000895
  C 5.378435 -1.120748 -2.012152
  C 6.816086 -1.130802 -2.031886
  C 7.534438 -1.642020 -3.035501
  C 9.023704 -1.661711 -3.074151
  H 3.004733 0.351686 0.878481
  H 2.706658 -1.028051 -1.830165
  H 5.161171 -0.170811 -0.147272
  H 4.873559 -1.555368 -2.865384
  H 7.322186 -0.696399 -1.179081
  H 7.035762 -2.078116 -3.891617
  H 9.456651 -1.208621 -2.184663
  H 9.382932 -1.116408 -3.947897
  H 9.382932 -2.689088 -3.146805
 17
 1.945758
  H 1.516791 0.230111 -0.003867
  C 2.541398 -0.083556 0.093822
  C 3.265641 -0.475309 -0.953248
  C 4.650702 -0.847276 -0.890384
  C 5.371106 -1.110508 -1.998599
  C 6.798870 -1.266220 -2.009512
  C 7.512148 -1.501190 -3.113845
  C 8.994205 -1.637178 -3.151463
  H 2.948132 -0.095497 1.092013
  H 2.885187 -0.363703 -1.955167
  H 5.111209 -0.900278 0.087300
  H 4.863971 -1.264884 -2.943386
  H 7.307179 -1.145138 -1.060700
  H 7.005760 -1.615006 -4.064565
  H 9.433876 -1.422942 -2.180156
  H 9.418467 -0.957383 -3.890354
  H 9.271619 -2.650695 -3.444026
 17
 5.703379
  H 1.434547 0.195872 -0.267299
  C 2.480840 0.029501 -0.083452
  C 3.261405 -0.590960 -0.968251
  C 4.678230 -0.775021 -0.830458
  C 5.401017 -1.256934 -1.865320
  C 6.823436 -1.173837 -1.978239
  C 7.519079 -1.678859 -3.005387
  C 8.997784 -1.570065 -3.163126
  H 2.858210 0.345483 0.877302
  H 2.923567 -0.771728 -1.978578
  H 5.143200 -0.549286 0.122546
  H 4.899987 -1.838350 -2.632484
  H 7.339460 -0.627379 -1.200061
  H 6.999138 -2.206460 -3.796430
  H 9.440099 -1.006876 -2.344861
  H 9.246540 -1.079124 -4.104467
  H 9.445954 -2.565738 -3.189475
 17
 13.983078
  H 1.408467 0.153139 -0.384053
  C 2.460193 0.070524 -0.170217
  C 3.297145 -0.588774 -0.973852
  C 4.707244 -0.759371 -0.754568
  C 5.421501 -1.331559 -1.753260
  C 6.834617 -1.192822 -1.948161
  C 7.503722 -1.741074 -2.968025
  C 8.955358 -1.542260 -3.229218
  H 2.794409 0.502779 0.757266
  H 3.086847 -0.739631 -2.026774
  H 5.152524 -0.473017 0.183466
  H 4.932718 -2.077997 -2.373074
  H 7.371320 -0.605288 -1.212515
  H 6.968982 -2.324917 -3.706980
  H 9.392499 -0.857302 -2.507069
  H 9.109207 -1.144669 -4.230665
  H 9.485724 -2.495716 -3.172253
 17
 26.519725
  H 1.576000 0.444905 -0.682666
  C 2.552057 0.206654 -0.288048
  C 3.341177 -0.674539 -0.913108
  C 4.692662 -1.025770 -0.576881
  C 5.410747 -1.471365 -1.644932
  C 6.795177 -1.235389 -1.895100
  C 7.469069 -1.775533 -2.926638
  C 8.859609 -1.404700 -3.310490
  H 2.892913 0.794412 0.546648
  H 3.241176 -0.884867 -1.971827
  H 5.121145 -0.887894 0.409656
  H 4.964259 -2.248248 -2.259759
  H 7.294043 -0.504699 -1.265216
  H 7.014151 -2.561747 -3.510223
  H 9.195022 -0.512906 -2.782185
  H 8.917788 -1.213107 -4.379592
  H 9.544405 -2.228561 -3.091256
 17
 41.605747
  H 1.477407 0.254247 -0.745042
  C 2.468658 0.158015 -0.320928
  C 3.393016 -0.641978 -0.887769
  C 4.752259 -0.921856 -0.491461
  C 5.437911 -1.414830 -1.582584
  C 6.785102 -1.133726 -1.946284
  C 7.434933 -1.750863 -2.962585
  C 8.871928 -1.487060 -3.337287
  H 2.704407 0.812105 0.499183
  H 3.445238 -0.879824 -1.957757
  H 5.157672 -0.809398 0.502017
  H 5.060414 -2.332153 -2.023019
  H 7.274972 -0.315262 -1.455087
  H 6.915223 -2.471475 -3.594163
  H 9.313521 -0.747852 -2.688055
  H 8.947277 -1.144050 -4.385604
  H 9.454929 -2.398940 -3.244952
 17
 59.972465
  H 1.697452 0.340367 -1.076765
  C 2.575303 0.238667 -0.441890
  C 3.531313 -0.661262 -0.768080
  C 4.773822 -1.129305 -0.346904
  C 5.402271 -1.553751 -1.519972
  C 6.742649 -1.242661 -1.874065
  C 7.349129 -1.678042 -3.000273
  C 8.748010 -1.360506 -3.377007
  H 2.753650 1.046101 0.238114
  H 3.742373 -0.816451 -1.874562
  H 5.157853 -1.202347 0.658716
  H 5.015068 -2.448279 -2.003024
  H 7.265584 -0.555362 -1.221955
  H 6.832742 -2.369464 -3.645735
  H 9.171789 -0.608098 -2.719649
  H 8.800957 -0.996450 -4.400481
  H 9.359551 -2.271225 -3.330023
 17
 72.418457
  H 1.773746 0.255841 -1.163399
  C 2.667140 0.303733 -0.564761
  C 3.622357 -0.618250 -0.657887
  C 4.769772 -1.163070 -0.220816
  C 5.352101 -1.602049 -1.487940
  C 6.699973 -1.251404 -1.868492
  C 7.325127 -1.727155 -2.950024
  C 8.700080 -1.341285 -3.371624
  H 2.842919 1.233057 -0.043370
  H 4.059427 -0.969449 -1.905827
  H 5.149091 -1.312293 0.773486
  H 4.983247 -2.532121 -1.904822
  H 7.191964 -0.509860 -1.250543
  H 6.824079 -2.450025 -3.582233
  H 9.120761 -0.596019 -2.701071
  H 8.686699 -0.937443 -4.384059
  H 9.352762 -2.215887 -3.379265
 17
 59.897818
  H 1.777889 0.316333 -1.008169
  C 2.675166 0.312836 -0.412305
  C 3.605494 -0.603256 -0.535663
  C 4.700833 -1.287540 -0.274681
  C 5.249990 -1.561567 -1.636722
  C 6.635661 -1.207885 -1.955012
  C 7.323430 -1.697769 -2.990063
  C 8.716888 -1.302498 -3.346423
  H 2.868540 1.209421 0.158520
  H 4.219160 -0.936958 -2.044951
  H 5.129929 -1.566442 0.674122
  H 4.889442 -2.476726 -2.117418
  H 7.096013 -0.471960 -1.305368
  H 6.855937 -2.417467 -3.651997
  H 9.094638 -0.543116 -2.665705
  H 8.747003 -0.910400 -4.364321
  H 9.380184 -2.166014 -3.309292
 17
 35.831624
  H 1.691874 0.217189 -0.800135
  C 2.637565 0.309205 -0.292580
  C 3.601099 -0.548910 -0.418648
  C 4.657754 -1.296985 -0.370234
  C 5.188197 -1.498808 -1.772624
  C 6.605343 -1.156277 -2.032520
  C 7.353327 -1.708038 -2.990197
  C 8.764935 -1.326902 -3.291229
  H 2.822076 1.258967 0.192489
  H 4.376984 -0.878268 -2.242599
  H 5.118658 -1.699418 0.514625
  H 4.881280 -2.459638 -2.206051
  H 7.034567 -0.411802 -1.372945
  H 6.920658 -2.451061 -3.648799
  H 9.119437 -0.565840 -2.600267
  H 8.839278 -0.938286 -4.307538
  H 9.418714 -2.196839 -3.223798
 17
 21.123250
  H 1.572978 -0.090214 -0.415489
  C 2.558606 0.284582 -0.189377
  C 3.628544 -0.428939 -0.357555
  C 4.664977 -1.203871 -0.462954
  C 5.183577 -1.426946 -1.860408
  C 6.631432 -1.149891 -2.068701
  C 7.363143 -1.675432 -3.038884
  C 8.812087 -1.392975 -3.257983
  H 2.618991 1.325416 0.091663
  H 4.508877 -0.764132 -2.426924
  H 5.167382 -1.641815 0.385003
  H 4.884520 -2.407384 -2.250859
  H 7.080099 -0.456638 -1.368258
  H 6.911645 -2.366529 -3.740270
  H 9.177997 -0.655941 -2.547273
  H 8.977075 -1.021109 -4.269026
  H 9.395512 -2.307301 -3.145749
 17
 17.916587
  H 1.477162 -0.468417 -0.153305
  C 2.352605 0.141849 -0.309284
  C 3.542317 -0.367426 -0.403379
  C 4.701112 -0.935304 -0.526579
  C 5.221322 -1.366267 -1.868455
  C 6.679210 -1.106818 -2.067299
  C 7.425805 -1.704247 -2.976177
  C 8.882815 -1.450497 -3.180863
  H 2.186296 1.205341 -0.360464
  H 4.608035 -0.839112 -2.613724
  H 5.342222 -1.089252 0.334121
  H 4.993260 -2.419933 -2.078907
  H 7.122430 -0.373697 -1.403684
  H 6.984371 -2.438274 -3.636867
  H 9.243147 -0.678592 -2.504980
  H 9.074371 -1.137838 -4.206375
  H 9.453100 -2.362972 -3.003819
 17
 15.073485
  H 1.648617 -0.095280 0.024539
  C 2.660887 0.270642 -0.053477
  C 3.641398 -0.501110 -0.400023
  C 4.609712 -1.271390 -0.787319
  C 5.037107 -1.434751 -2.223735
  C 6.457268 -0.987453 -2.394094
  C 7.449423 -1.768352 -2.786328
  C 8.866422 -1.327275 -2.947555
  H 2.814627 1.309727 0.192572
  H 4.382164 -0.839116 -2.862696
  H 5.182581 -1.835611 -0.063363
  H 4.943484 -2.485398 -2.509814
  H 6.644937 0.051757 -2.150535
  H 7.257560 -2.807467 -3.023207
  H 8.980659 -0.278022 -2.685637
  H 9.191040 -1.469895 -3.978202
  H 9.521695 -1.922463 -2.311165
