 17
 0.000000
  H 1.432750 -0.076648 0.037589
  C 2.505078 -0.083196 0.024734
  C 3.219861 -0.594154 -0.978363
  C 4.657193 -0.604986 -0.999628
  C 5.378530 -1.120065 -2.010814
  C 6.816203 -1.130131 -2.030571
  C 7.534016 -1.641557 -3.034591
  C 9.023847 -1.662199 -3.075108
  H 3.002138 0.352221 0.879534
  H 2.710111 -1.027800 -1.829673
  H 5.161183 -0.170160 -0.145994
  H 4.874745 -1.554956 -2.864575
  H 7.323859 -0.696087 -1.178470
  H 7.034613 -2.077492 -3.890389
  H 9.462413 -1.209801 -2.186983
  H 9.381266 -1.117520 -3.950000
  H 9.381265 -2.690135 -3.148938
 17
 2.361458
  H 1.530310 -0.098292 0.233612
  C 2.604274 -0.125348 0.205928
  C 3.273897 -0.564843 -0.859008
  C 4.708657 -0.646450 -0.926657
  C 5.387480 -0.967965 -2.040808
  C 6.815074 -1.101481 -2.098226
  C 7.488567 -1.436472 -3.204927
  C 8.935120 -1.792340 -3.193020
  H 3.117403 0.210890 1.096466
  H 2.737065 -0.877570 -1.741004
  H 5.250419 -0.397245 -0.023492
  H 4.840145 -1.246524 -2.931367
  H 7.359457 -0.821001 -1.205278
  H 6.981033 -1.485308 -4.161564
  H 9.329799 -1.639198 -2.193571
  H 9.509861 -1.254713 -3.939886
  H 9.030164 -2.861024 -3.399872
 17
 9.444565
  H 1.498121 -0.180943 0.135369
  C 2.569512 -0.134155 0.094745
  C 3.263068 -0.726337 -0.872474
  C 4.687672 -0.623992 -1.013374
  C 5.366124 -1.081905 -2.082318
  C 6.793152 -1.021928 -2.196960
  C 7.525888 -1.524483 -3.204756
  C 8.987299 -1.720348 -2.986137
  H 3.055096 0.418611 0.877373
  H 2.736257 -1.187725 -1.703373
  H 5.221137 -0.109726 -0.218203
  H 4.821586 -1.566405 -2.889038
  H 7.265908 -0.360156 -1.489103
  H 7.102764 -1.787053 -4.157941
  H 9.192021 -1.365206 -1.979331
  H 9.634680 -1.321437 -3.770481
  H 9.168264 -2.799916 -2.907135
 17
 21.525892
  H 1.553135 -0.362977 0.218079
  C 2.610709 -0.213480 0.104518
  C 3.272246 -0.661401 -0.932256
  C 4.672968 -0.501042 -1.087244
  C 5.388150 -1.079873 -2.071111
  C 6.828535 -0.942578 -2.221295
  C 7.536498 -1.480596 -3.231673
  C 8.947691 -1.763143 -2.955249
  H 3.119051 0.350718 0.903435
  H 2.774642 -1.263847 -1.686067
  H 5.156895 0.133706 -0.377986
  H 4.884385 -1.731588 -2.765960
  H 7.264761 -0.153014 -1.630169
  H 7.116675 -1.684241 -4.209814
  H 9.032309 -1.380199 -1.922721
  H 9.668025 -1.501901 -3.717365
  H 9.039606 -2.839490 -2.737819
 17
 38.591244
  H 1.683778 -0.487259 0.456932
  C 2.677391 -0.175212 0.166774
  C 3.349411 -0.770050 -0.826800
  C 4.703660 -0.436302 -1.190075
  C 5.368060 -1.009086 -2.213888
  C 6.770740 -0.897171 -2.401880
  C 7.544190 -1.417289 -3.391578
  C 8.865552 -1.840358 -2.852726
  H 3.124156 0.606074 0.763265
  H 2.895060 -1.585972 -1.375658
  H 5.232907 0.234761 -0.526944
  H 4.835733 -1.704956 -2.849677
  H 7.219694 -0.059512 -1.875580
  H 7.237351 -1.554263 -4.410688
  H 8.692911 -1.454387 -1.824169
  H 9.747090 -1.627232 -3.431320
  H 8.879256 -2.871884 -2.484454
 17
 60.381846
  H 1.614726 -0.329409 0.283935
  C 2.691437 -0.225024 0.180741
  C 3.354719 -0.738490 -0.851873
  C 4.755703 -0.573087 -1.061725
  C 5.419618 -1.068076 -2.137643
  C 6.823025 -0.911402 -2.358349
  C 7.535689 -1.429748 -3.411866
  C 8.849315 -1.824787 -2.879683
  H 3.184376 0.365047 0.922256
  H 2.831337 -1.309709 -1.594411
  H 5.272464 0.068282 -0.360936
  H 4.865219 -1.631265 -2.893680
  H 7.205268 -0.030184 -1.857996
  H 7.240618 -1.456541 -4.443041
  H 8.512594 -1.436300 -1.857294
  H 9.721571 -1.682147 -3.492035
  H 8.892383 -2.809618 -2.398285
 17
 81.259368
  H 1.631264 -0.433028 0.281304
  C 2.681007 -0.234910 0.148939
  C 3.378868 -0.759443 -0.857165
  C 4.778036 -0.517775 -1.076268
  C 5.480532 -1.048434 -2.094006
  C 6.901461 -0.865779 -2.290736
  C 7.597207 -1.336524 -3.445463
  C 8.782897 -1.910929 -2.976567
  H 3.142177 0.415016 0.874746
  H 2.889152 -1.408135 -1.571964
  H 5.275201 0.130972 -0.365394
  H 4.984913 -1.717011 -2.788054
  H 7.289021 0.031742 -1.819115
  H 7.291910 -1.215950 -4.473523
  H 8.153956 -1.423997 -1.703813
  H 9.700062 -1.856142 -3.566172
  H 8.740036 -2.841211 -2.426587
 17
 63.413820
  H 1.620260 -0.442295 0.265119
  C 2.666654 -0.237029 0.137404
  C 3.375041 -0.767070 -0.856687
  C 4.788347 -0.544853 -1.044450
  C 5.495615 -1.061682 -2.045164
  C 6.945121 -0.859702 -2.239726
  C 7.676378 -1.325016 -3.441722
  C 8.808389 -1.943576 -3.078460
  H 3.107733 0.441343 0.844827
  H 2.905166 -1.408946 -1.573702
  H 5.285024 0.096852 -0.312580
  H 5.006842 -1.703980 -2.766711
  H 7.308352 0.081854 -1.770746
  H 7.357931 -1.119339 -4.452428
  H 7.807161 -1.368927 -1.589788
  H 9.705163 -1.956733 -3.686718
  H 8.749888 -2.840821 -2.476092
 17
 44.668475
  H 1.545505 -0.264322 0.002913
  C 2.618334 -0.138526 -0.005052
  C 3.406584 -0.857955 -0.799963
  C 4.827327 -0.646440 -0.922438
  C 5.567879 -1.149012 -1.912582
  C 7.010505 -0.896293 -2.083489
  C 7.670709 -1.188947 -3.393368
  C 8.754261 -1.949178 -3.221579
  H 3.028313 0.519066 0.742911
  H 2.959990 -1.535485 -1.528743
  H 5.281044 0.001140 -0.184415
  H 5.109578 -1.786827 -2.655164
  H 7.311955 0.087705 -1.692616
  H 7.261798 -0.882116 -4.341558
  H 7.839328 -1.423265 -1.502575
  H 9.586527 -1.991737 -3.926995
  H 8.724665 -2.826615 -2.599729
 17
 26.529715
  H 1.540711 -0.441767 0.036920
  C 2.593434 -0.209739 -0.013039
  C 3.399448 -0.775040 -0.910284
  C 4.819208 -0.539348 -0.975383
  C 5.634251 -1.134686 -1.848799
  C 7.077304 -0.856847 -1.977040
  C 7.691371 -1.150936 -3.315930
  C 8.695957 -2.017175 -3.331481
  H 2.958060 0.500924 0.706041
  H 3.002626 -1.520925 -1.586495
  H 5.209497 0.177567 -0.266649
  H 5.235087 -1.887569 -2.515036
  H 7.377886 0.129645 -1.613027
  H 7.265391 -0.718384 -4.214825
  H 7.750302 -1.469296 -1.350247
  H 9.388392 -2.134486 -4.151570
  H 8.742225 -2.852825 -2.642485
 17
 16.670962
  H 1.528914 -0.414583 0.071267
  C 2.589554 -0.225747 0.033823
  C 3.369902 -0.764064 -0.900308
  C 4.795245 -0.546421 -0.981301
  C 5.574273 -1.087847 -1.919973
  C 7.044825 -0.896408 -1.996304
  C 7.704079 -1.221986 -3.304131
  C 8.747867 -2.023528 -3.325078
  H 2.996681 0.385630 0.822225
  H 2.942121 -1.386265 -1.673947
  H 5.229710 0.113115 -0.236403
  H 5.143361 -1.749711 -2.657377
  H 7.334822 0.115601 -1.677677
  H 7.295049 -0.772394 -4.199499
  H 7.610264 -1.507211 -1.269505
  H 9.402407 -2.151211 -4.172409
  H 8.924462 -2.746119 -2.533025
 17
 10.450498
  H 1.495939 -0.366827 -0.052967
  C 2.560154 -0.209687 -0.034493
  C 3.375305 -0.785676 -0.912307
  C 4.803347 -0.573773 -0.942150
  C 5.610859 -1.108454 -1.857144
  C 7.092954 -0.937235 -1.877062
  C 7.702521 -1.187186 -3.221305
  C 8.684797 -2.040518 -3.426326
  H 2.930513 0.472337 0.713388
  H 2.976886 -1.443242 -1.674190
  H 5.210999 0.072156 -0.173457
  H 5.201113 -1.742737 -2.632672
  H 7.359245 0.074018 -1.546859
  H 7.287121 -0.610826 -4.038022
  H 7.575575 -1.614246 -1.160239
  H 9.163603 -2.154951 -4.386984
  H 9.023352 -2.709338 -2.651125
 17
 9.556881
  H 1.482380 -0.309122 -0.160639
  C 2.542640 -0.124952 -0.153341
  C 3.375623 -0.794504 -0.926947
  C 4.802527 -0.574628 -0.949246
  C 5.635441 -1.243457 -1.725026
  C 7.118248 -1.044058 -1.751617
  C 7.671743 -1.137186 -3.142662
  C 8.611528 -1.963757 -3.528925
  H 2.891874 0.638816 0.522189
  H 3.000994 -1.558843 -1.595884
  H 5.181570 0.184811 -0.277023
  H 5.253729 -1.997482 -2.401400
  H 7.363224 -0.061171 -1.335384
  H 7.267491 -0.412889 -3.837037
  H 7.599918 -1.791016 -1.113867
  H 8.977771 -1.956568 -4.541047
  H 9.039230 -2.701585 -2.872180
 17
 9.273515
  H 1.470886 -0.310306 -0.160784
  C 2.530609 -0.120848 -0.153556
  C 3.373383 -0.794880 -0.927842
  C 4.802032 -0.570215 -0.947863
  C 5.646571 -1.245983 -1.724324
  C 7.130481 -1.044133 -1.745681
  C 7.676956 -1.123960 -3.137948
  C 8.607363 -1.968802 -3.539510
  H 2.875195 0.648184 0.518857
  H 3.002958 -1.563220 -1.595150
  H 5.176291 0.195522 -0.279223
  H 5.270506 -2.008315 -2.395404
  H 7.372238 -0.065857 -1.319244
  H 7.261969 -0.401042 -3.829448
  H 7.609628 -1.803256 -1.118209
  H 8.965420 -1.969813 -4.555375
  H 9.043446 -2.700667 -2.879333
