 17
 0.000000
  C 0.992286 0.130020 0.356608
  C 2.451974 0.088105 0.273565
  H 3.033801 0.423999 1.121403
  C 3.100074 -0.360929 -0.853126
  C 4.490943 -0.402203 -0.959484
  C 5.201189 -0.849656 -2.078098
  C 4.589451 -1.354434 -3.321709
  H 3.507526 -1.352423 -3.301714
  O 6.506760 -0.848485 -2.092041
  H 0.633865 0.508313 1.307376
  H 0.577662 -0.865443 0.181505
  H 0.599242 0.744020 -0.457247
  H 2.494263 -0.690608 -1.684909
  H 5.062965 -0.060104 -0.106085
  H 4.955413 -2.363895 -3.511995
  H 4.946759 -0.756415 -4.160634
  H 6.937040 -0.518383 -1.279070
 17
 2.231867
  C 1.027688 0.113924 0.279016
  C 2.478015 0.044567 0.360687
  H 3.005562 0.421919 1.219569
  C 3.152233 -0.418913 -0.746383
  C 4.521868 -0.413414 -0.892626
  C 5.162756 -0.825874 -2.062342
  C 4.512354 -1.309947 -3.290518
  H 3.430939 -1.311627 -3.245959
  O 6.466465 -0.828676 -2.139450
  H 0.557975 0.616535 1.108698
  H 0.599377 -0.875516 0.167050
  H 0.825748 0.617218 -0.686155
  H 2.548849 -0.770641 -1.570005
  H 5.125697 -0.069695 -0.066239
  H 4.873467 -2.317230 -3.504825
  H 4.843821 -0.695208 -4.129058
  H 6.929115 -0.500322 -1.354432
 17
 6.667947
  C 1.062162 0.102913 0.162248
  C 2.492268 0.009223 0.426693
  H 2.956260 0.439252 1.308341
  C 3.212965 -0.493583 -0.623584
  C 4.578349 -0.439855 -0.817376
  C 5.127261 -0.803433 -2.039616
  C 4.413433 -1.247409 -3.247853
  H 3.340247 -1.248589 -3.164517
  O 6.428980 -0.809998 -2.198197
  H 0.507480 0.754845 0.832943
  H 0.604283 -0.879504 0.167880
  H 1.044638 0.420881 -0.892860
  H 2.628280 -0.896315 -1.435438
  H 5.229873 -0.075802 -0.023315
  H 4.762489 -2.247581 -3.509515
  H 4.710365 -0.605574 -4.079791
  H 6.947081 -0.492252 -1.429014
 17
 13.557859
  C 1.129719 0.100977 0.034859
  C 2.507962 -0.033501 0.483106
  H 2.901487 0.449868 1.362898
  C 3.271504 -0.602109 -0.494283
  C 4.615396 -0.473703 -0.741993
  C 5.078530 -0.777236 -2.012434
  C 4.312913 -1.188219 -3.205322
  H 3.236907 -1.195306 -3.084246
  O 6.378288 -0.762779 -2.233887
  H 0.552767 0.867835 0.532513
  H 0.596455 -0.850724 0.115611
  H 1.286529 0.272603 -1.040668
  H 2.713796 -1.083716 -1.279248
  H 5.292598 -0.073036 -0.001461
  H 4.656677 -2.178240 -3.514753
  H 4.575654 -0.517540 -4.026597
  H 6.925597 -0.451767 -1.487148
 17
 20.602714
  C 1.247595 0.173954 -0.110994
  C 2.531350 -0.147318 0.525590
  H 2.923037 0.399915 1.362799
  C 3.285745 -0.883198 -0.351237
  C 4.604919 -0.615662 -0.660541
  C 5.012580 -0.747996 -1.980727
  C 4.226767 -1.172536 -3.153889
  H 3.164546 -1.279724 -2.977618
  O 6.283025 -0.536241 -2.280145
  H 0.753102 1.051092 0.286694
  H 0.559319 -0.671596 -0.087944
  H 1.585091 0.294464 -1.158298
  H 2.733287 -1.444233 -1.091221
  H 5.265421 -0.154156 0.059528
  H 4.634011 -2.115031 -3.521607
  H 4.388687 -0.450755 -3.953777
  H 6.825995 -0.174340 -1.556397
 17
 26.810207
  C 1.415230 0.233598 -0.286147
  C 2.577516 -0.212368 0.490437
  H 2.961152 0.338587 1.329673
  C 3.295869 -1.109501 -0.252472
  C 4.604182 -0.779094 -0.579986
  C 4.933260 -0.713535 -1.921151
  C 4.122908 -1.149316 -3.081566
  H 3.094703 -1.384697 -2.854338
  O 6.109659 -0.236181 -2.293501
  H 1.041696 1.194356 0.022752
  H 0.600875 -0.493391 -0.281083
  H 1.839222 0.261566 -1.311254
  H 2.747465 -1.748066 -0.928971
  H 5.237636 -0.274957 0.144033
  H 4.601100 -2.024767 -3.524493
  H 4.161054 -0.372161 -3.843009
  H 6.695741 0.040648 -1.564174
 17
 34.857487
  C 1.577951 0.264118 -0.432611
  C 2.635311 -0.250379 0.439041
  H 3.057231 0.349710 1.226421
  C 3.295663 -1.276903 -0.176134
  C 4.598273 -0.898144 -0.520790
  C 4.837373 -0.679800 -1.863546
  C 4.021737 -1.126090 -3.018147
  H 3.024310 -1.461446 -2.769834
  O 5.931554 -0.034504 -2.247945
  H 1.234002 1.245584 -0.141694
  H 0.726603 -0.413672 -0.523918
  H 2.104598 0.288958 -1.420163
  H 2.745827 -1.943929 -0.818745
  H 5.235520 -0.413367 0.210195
  H 4.552376 -1.941814 -3.507348
  H 3.973181 -0.319260 -3.749223
  H 6.541162 0.215772 -1.529088
 17
 43.381064
  C 1.734670 0.280848 -0.572472
  C 2.692542 -0.283037 0.379067
  H 3.152689 0.349892 1.119918
  C 3.290557 -1.414407 -0.109419
  C 4.581762 -0.965077 -0.479477
  C 4.744350 -0.635137 -1.811492
  C 3.921959 -1.087328 -2.958694
  H 2.953851 -1.491656 -2.692974
  O 5.788416 0.090918 -2.199109
  H 1.380319 1.261163 -0.291513
  H 0.893388 -0.376225 -0.793855
  H 2.384778 0.321571 -1.483337
  H 2.745713 -2.121417 -0.710107
  H 5.234054 -0.510171 0.256491
  H 4.484846 -1.861779 -3.487088
  H 3.808567 -0.267470 -3.663865
  H 6.406233 0.343380 -1.489385
 17
 53.053305
  C 1.897044 0.300961 -0.689540
  C 2.751310 -0.326206 0.323353
  H 3.213529 0.298215 1.071589
  C 3.277787 -1.543037 -0.055278
  C 4.532646 -0.974928 -0.454359
  C 4.646738 -0.573391 -1.778045
  C 3.845057 -1.060368 -2.926482
  H 2.904558 -1.521612 -2.655813
  O 5.665070 0.190350 -2.161912
  H 1.558275 1.290535 -0.420932
  H 1.060444 -0.316416 -1.010768
  H 2.650647 0.321672 -1.518478
  H 2.743358 -2.276449 -0.629512
  H 5.204555 -0.554761 0.281770
  H 4.448191 -1.802786 -3.455942
  H 3.685074 -0.249769 -3.633954
  H 6.277946 0.456217 -1.452172
 17
 62.977061
  C 2.052305 0.326215 -0.776937
  C 2.823579 -0.367045 0.285591
  H 3.235278 0.218575 1.093287
  C 3.260495 -1.647409 -0.028715
  C 4.463102 -0.953635 -0.435252
  C 4.559032 -0.515241 -1.770859
  C 3.807360 -1.057876 -2.924874
  H 2.888231 -1.565765 -2.662644
  O 5.560305 0.269740 -2.140884
  H 1.751039 1.331478 -0.506682
  H 1.201688 -0.236348 -1.144771
  H 2.866428 0.301692 -1.535273
  H 2.731359 -2.379358 -0.612237
  H 5.159823 -0.577937 0.293516
  H 4.462774 -1.777012 -3.424217
  H 3.618320 -0.271671 -3.654774
  H 6.153842 0.569778 -1.427257
 17
 70.260805
  C 2.190366 0.364884 -0.838773
  C 2.903029 -0.405763 0.263679
  H 3.225754 0.122905 1.146982
  C 3.245961 -1.736376 -0.033167
  C 4.394025 -0.928446 -0.416137
  C 4.481555 -0.458195 -1.781548
  C 3.808770 -1.076820 -2.945353
  H 2.906209 -1.619464 -2.697104
  O 5.456888 0.350487 -2.124198
  H 1.934171 1.381177 -0.545207
  H 1.304411 -0.134075 -1.210827
  H 3.034126 0.289443 -1.555943
  H 2.710399 -2.446315 -0.641104
  H 5.132348 -0.606306 0.290777
  H 4.519628 -1.780499 -3.387329
  H 3.611464 -0.327746 -3.711337
  H 6.041088 0.668326 -1.407951
 17
 74.492156
  C 2.303285 0.401815 -0.863665
  C 2.967082 -0.439925 0.243051
  H 3.178719 0.022184 1.194182
  C 3.237362 -1.805174 -0.061603
  C 4.350990 -0.925102 -0.405557
  C 4.421242 -0.399732 -1.794932
  C 3.834519 -1.105102 -2.963232
  H 2.944798 -1.674612 -2.725575
  O 5.373335 0.429418 -2.111775
  H 2.097942 1.423976 -0.553485
  H 1.400453 -0.040251 -1.269347
  H 3.173512 0.302858 -1.583505
  H 2.684079 -2.464883 -0.704188
  H 5.147231 -0.682230 0.270745
  H 4.594912 -1.793671 -3.336541
  H 3.631683 -0.398713 -3.768245
  H 5.946336 0.761459 -1.389456
 17
 75.700728
  C 2.389305 0.421065 -0.862914
  C 3.020668 -0.450639 0.228693
  H 3.142352 -0.034948 1.221307
  C 3.209752 -1.844829 -0.086593
  C 4.329752 -0.956733 -0.417960
  C 4.373919 -0.344687 -1.809893
  C 3.890099 -1.120404 -2.990499
  H 3.018681 -1.726848 -2.770265
  O 5.308346 0.517287 -2.085745
  H 2.242014 1.457852 -0.568834
  H 1.492183 0.023836 -1.317039
  H 3.276815 0.319657 -1.620225
  H 2.632673 -2.479530 -0.721645
  H 5.209619 -0.876016 0.196169
  H 4.707809 -1.778548 -3.292919
  H 3.678737 -0.455622 -3.825870
  H 5.842958 0.851497 -1.337623
 17
 78.599232
  C 2.447140 0.416245 -0.865547
  C 3.053659 -0.465510 0.222377
  H 3.108358 -0.086921 1.232484
  C 3.196046 -1.866301 -0.124756
  C 4.334133 -0.993744 -0.430132
  C 4.368757 -0.321176 -1.815214
  C 3.951842 -1.111828 -3.018979
  H 3.090325 -1.740508 -2.821088
  O 5.324053 0.559487 -2.059844
  H 2.329500 1.461071 -0.591001
  H 1.557653 0.027940 -1.349279
  H 3.370642 0.301689 -1.644211
  H 2.601778 -2.493341 -0.753976
  H 5.251296 -1.022222 0.136908
  H 4.792443 -1.751622 -3.293517
  H 3.754843 -0.453503 -3.861621
  H 5.836336 0.886524 -1.292177
