 23
 0.000000
  C 1.002202 0.049420 0.183598
  C 2.505962 0.051329 0.181750
  C 3.280713 -0.025479 1.477838
  C 2.474861 -0.087064 2.772348
  C 3.402579 -0.157268 3.981323
  C 3.143263 0.119933 -0.996400
  H 2.548048 0.172354 -1.901636
  C 4.568201 0.132620 -1.204987
  C 5.118497 0.203438 -2.420932
  O 6.446849 0.219802 -2.689304
  H 0.588946 -0.026822 1.182164
  H 0.626580 -0.789189 -0.403935
  H 0.619365 0.964576 -0.269923
  H 3.940424 0.846376 1.533357
  H 3.924949 -0.909887 1.439063
  H 1.831912 -0.969676 2.771351
  H 1.845154 0.800469 2.862809
  H 4.032813 -1.042845 3.930102
  H 2.826499 -0.200995 4.902645
  H 4.046346 0.719075 4.022235
  H 5.213341 0.082462 -0.338733
  H 4.533667 0.255586 -3.327516
  H 6.944149 0.172180 -1.862683
 23
 6.248940
  C 0.997843 -0.006865 0.203928
  C 2.469646 0.043948 0.188183
  C 3.262733 -0.037439 1.474004
  C 2.467584 -0.074878 2.776217
  C 3.404454 -0.151400 3.977948
  C 3.114678 0.116454 -0.986911
  H 2.523767 0.166257 -1.894074
  C 4.545341 0.141787 -1.190164
  C 5.114822 0.218811 -2.430595
  O 6.456489 0.242393 -2.694646
  H 0.537510 -0.038171 1.176989
  H 0.585098 -0.800428 -0.406030
  H 0.885385 0.945203 -0.275403
  H 3.939570 0.822153 1.516833
  H 3.891132 -0.934027 1.435437
  H 1.810025 -0.946523 2.788397
  H 1.853776 0.824323 2.864616
  H 4.019068 -1.048110 3.928059
  H 2.835602 -0.177977 4.904823
  H 4.063841 0.713928 4.006343
  H 5.187098 0.094721 -0.319571
  H 4.533441 0.268030 -3.343365
  H 6.953043 0.196419 -1.859382
 23
 18.352612
  C 1.001083 -0.034308 0.204233
  C 2.456874 0.016994 0.191087
  C 3.273294 -0.069511 1.481644
  C 2.473008 -0.064149 2.776342
  C 3.397168 -0.144479 3.985363
  C 3.114906 0.091015 -1.007371
  H 2.526379 0.115578 -1.909865
  C 4.534460 0.155339 -1.209488
  C 5.081188 0.232230 -2.411234
  O 6.414632 0.285511 -2.672212
  H 0.514307 -0.010433 1.169148
  H 0.555524 -0.783734 -0.452058
  H 1.119295 0.920756 -0.259271
  H 3.975492 0.766547 1.514122
  H 3.868117 -0.985794 1.453299
  H 1.791738 -0.918370 2.795322
  H 1.881125 0.852134 2.842726
  H 3.988946 -1.057728 3.954677
  H 2.820652 -0.141075 4.908033
  H 4.078614 0.704037 4.004770
  H 5.179955 0.130418 -0.345145
  H 4.499579 0.258122 -3.322178
  H 6.907598 0.258565 -1.837839
 23
 32.710860
  C 0.975887 -0.070579 0.227765
  C 2.443184 0.017259 0.191970
  C 3.264139 -0.067045 1.465062
  C 2.464302 -0.055330 2.773716
  C 3.396906 -0.137446 3.979644
  C 3.106720 0.093733 -1.010531
  H 2.519169 0.115464 -1.919993
  C 4.528565 0.162693 -1.205703
  C 5.088056 0.241220 -2.414269
  O 6.427647 0.286651 -2.665958
  H 0.494745 -0.053561 1.190978
  H 0.519609 -0.759181 -0.470440
  H 1.271927 0.887714 -0.181665
  H 3.976639 0.768161 1.491635
  H 3.854306 -0.993544 1.429589
  H 1.780299 -0.905049 2.798432
  H 1.876299 0.863111 2.841510
  H 3.984104 -1.052162 3.947260
  H 2.825858 -0.130097 4.905482
  H 4.081764 0.707756 3.993969
  H 5.168168 0.136835 -0.340806
  H 4.513976 0.266015 -3.332413
  H 6.909537 0.255362 -1.832280
 23
 44.162684
  C 0.960408 -0.095359 0.234940
  C 2.434361 0.014468 0.187449
  C 3.247290 -0.066752 1.462723
  C 2.460714 -0.050364 2.773430
  C 3.402564 -0.125971 3.966921
  C 3.104111 0.085374 -1.020268
  H 2.512644 0.089494 -1.928741
  C 4.527608 0.158029 -1.211112
  C 5.095114 0.233342 -2.416001
  O 6.434585 0.296938 -2.656185
  H 0.476821 -0.137687 1.195518
  H 0.482307 -0.665698 -0.530209
  H 1.394597 0.875325 -0.055909
  H 3.963219 0.763054 1.486775
  H 3.829264 -0.994977 1.422332
  H 1.781415 -0.898503 2.810546
  H 1.874113 0.864657 2.844767
  H 3.989325 -1.037680 3.931976
  H 2.841996 -0.116223 4.895534
  H 4.084201 0.718158 3.971427
  H 5.164694 0.142470 -0.341326
  H 4.528832 0.251318 -3.336197
  H 6.908475 0.274409 -1.816918
 23
 52.504299
  C 0.957021 -0.116655 0.236811
  C 2.431045 0.014186 0.179902
  C 3.242687 -0.069744 1.461242
  C 2.461679 -0.047174 2.772502
  C 3.405733 -0.113601 3.958143
  C 3.098865 0.078783 -1.024927
  H 2.508726 0.076141 -1.931168
  C 4.515520 0.148026 -1.210826
  C 5.091139 0.225785 -2.414226
  O 6.435782 0.308908 -2.645166
  H 0.478807 -0.215059 1.189510
  H 0.454333 -0.585341 -0.591665
  H 1.503866 0.871786 0.044985
  H 3.962245 0.755095 1.482804
  H 3.817842 -0.999633 1.418719
  H 1.782112 -0.899904 2.819176
  H 1.871044 0.869974 2.841626
  H 3.992841 -1.021941 3.925317
  H 2.850468 -0.100220 4.886670
  H 4.084072 0.730491 3.955068
  H 5.151434 0.136442 -0.334068
  H 4.531643 0.244406 -3.336127
  H 6.903368 0.290136 -1.800720
 23
 58.196515
  C 0.950176 -0.147180 0.235169
  C 2.423104 0.009505 0.174098
  C 3.235248 -0.072641 1.456414
  C 2.456783 -0.049655 2.776682
  C 3.409614 -0.098290 3.960183
  C 3.095399 0.081774 -1.036232
  H 2.509115 0.082432 -1.933224
  C 4.511575 0.165434 -1.217814
  C 5.093938 0.243204 -2.418985
  O 6.443257 0.288056 -2.642895
  H 0.470116 -0.292217 1.178406
  H 0.439547 -0.507692 -0.633110
  H 1.580059 0.857674 0.129378
  H 3.950148 0.751873 1.475363
  H 3.813497 -0.998070 1.414002
  H 1.789671 -0.907021 2.833707
  H 1.858964 0.858309 2.843309
  H 4.009696 -1.005211 3.929675
  H 2.857415 -0.085198 4.893982
  H 4.080507 0.755892 3.948458
  H 5.149749 0.143576 -0.332806
  H 4.541455 0.258063 -3.342197
  H 6.904979 0.254965 -1.793991
 23
 62.332618
  C 0.954890 -0.173074 0.247751
  C 2.427445 0.007582 0.189103
  C 3.242457 -0.082792 1.466239
  C 2.457851 -0.052738 2.766747
  C 3.401362 -0.085899 3.966419
  C 3.104921 0.067443 -1.042424
  H 2.503963 0.069741 -1.943826
  C 4.516398 0.152574 -1.227491
  C 5.099059 0.237934 -2.430796
  O 6.441032 0.304028 -2.650934
  H 0.467407 -0.351694 1.175013
  H 0.422814 -0.407214 -0.654212
  H 1.654574 0.855552 0.213057
  H 3.962025 0.742205 1.485821
  H 3.816062 -1.011093 1.428527
  H 1.791689 -0.915458 2.821715
  H 1.850226 0.856055 2.817306
  H 4.008470 -0.990755 3.950464
  H 2.836152 -0.068506 4.897899
  H 4.069901 0.775531 3.955530
  H 5.150488 0.136982 -0.353790
  H 4.544931 0.260121 -3.356569
  H 6.899357 0.271892 -1.802917
 23
 65.978368
  C 0.956083 -0.206562 0.245486
  C 2.424894 0.020810 0.187684
  C 3.246932 -0.082830 1.462038
  C 2.458211 -0.053078 2.774362
  C 3.401454 -0.079473 3.971487
  C 3.104946 0.068676 -1.047577
  H 2.504016 0.070817 -1.945183
  C 4.510924 0.159051 -1.228800
  C 5.099164 0.240511 -2.432365
  O 6.448975 0.299558 -2.647827
  H 0.455696 -0.386100 1.174688
  H 0.416248 -0.368563 -0.668242
  H 1.709896 0.870392 0.238984
  H 3.966438 0.738192 1.480281
  H 3.814628 -1.010797 1.419183
  H 1.794305 -0.920042 2.831460
  H 1.846121 0.853201 2.823703
  H 4.012768 -0.980889 3.956411
  H 2.840022 -0.063380 4.898928
  H 4.062896 0.782164 3.958494
  H 5.146030 0.143848 -0.350017
  H 4.547644 0.255429 -3.362130
  H 6.903295 0.269292 -1.797981
 23
 69.011641
  C 0.954900 -0.231529 0.242486
  C 2.419703 0.030415 0.193098
  C 3.246104 -0.085704 1.467471
  C 2.461905 -0.046967 2.770275
  C 3.405386 -0.076028 3.967181
  C 3.099703 0.065705 -1.042781
  H 2.502446 0.070626 -1.928479
  C 4.505495 0.148549 -1.225776
  C 5.096589 0.235504 -2.429594
  O 6.448857 0.317439 -2.642462
  H 0.447901 -0.393845 1.161541
  H 0.420455 -0.362171 -0.675143
  H 1.761181 0.888481 0.245467
  H 3.978545 0.731261 1.482369
  H 3.813160 -1.033688 1.422538
  H 1.789023 -0.914834 2.831121
  H 1.854968 0.866248 2.818322
  H 4.007462 -0.976235 3.954149
  H 2.841528 -0.054072 4.898642
  H 4.073668 0.782965 3.951639
  H 5.140900 0.136859 -0.348918
  H 4.550383 0.258190 -3.350541
  H 6.902462 0.290276 -1.792536
 23
 70.148576
  C 0.963391 -0.283511 0.234031
  C 2.409390 0.046815 0.195272
  C 3.243101 -0.085579 1.467422
  C 2.464441 -0.044954 2.778604
  C 3.413130 -0.074488 3.974718
  C 3.101855 0.076886 -1.050207
  H 2.500083 0.079091 -1.945117
  C 4.497790 0.170847 -1.223349
  C 5.098668 0.250821 -2.428051
  O 6.452561 0.298040 -2.632381
  H 0.437721 -0.410180 1.156104
  H 0.426617 -0.380526 -0.690343
  H 1.802726 0.935051 0.243777
  H 3.979982 0.725506 1.482085
  H 3.794987 -1.026231 1.416157
  H 1.797642 -0.901923 2.840966
  H 1.860104 0.865029 2.826667
  H 4.016324 -0.977518 3.959816
  H 2.853726 -0.052135 4.907260
  H 4.082035 0.783590 3.956748
  H 5.130351 0.155497 -0.342680
  H 4.557923 0.263194 -3.353526
  H 6.900599 0.265980 -1.779026
 23
 69.932986
  C 0.974430 -0.332205 0.232798
  C 2.402789 0.058042 0.199432
  C 3.240976 -0.093488 1.469734
  C 2.465731 -0.034572 2.782521
  C 3.415473 -0.072210 3.975824
  C 3.103849 0.073952 -1.053424
  H 2.498642 0.076724 -1.948921
  C 4.492978 0.163900 -1.222355
  C 5.099225 0.251890 -2.428016
  O 6.452512 0.319364 -2.625336
  H 0.437634 -0.410468 1.156597
  H 0.433652 -0.406640 -0.693732
  H 1.864624 0.991337 0.236253
  H 3.992820 0.702644 1.480434
  H 3.774211 -1.047622 1.416184
  H 1.787382 -0.878672 2.850472
  H 1.875915 0.884068 2.825992
  H 4.003813 -0.982537 3.963969
  H 2.857497 -0.036981 4.911065
  H 4.097479 0.775981 3.952243
  H 5.124866 0.155049 -0.340460
  H 4.560893 0.274147 -3.354104
  H 6.897559 0.288485 -1.771239
 23
 67.906670
  C 0.996261 -0.399845 0.234340
  C 2.388902 0.080178 0.209377
  C 3.234303 -0.091359 1.474318
  C 2.464289 -0.024535 2.794007
  C 3.417360 -0.068762 3.980470
  C 3.110144 0.092991 -1.059023
  H 2.503378 0.091289 -1.957319
  C 4.492725 0.189799 -1.223430
  C 5.103293 0.268570 -2.433392
  O 6.456317 0.304737 -2.627479
  H 0.437176 -0.414129 1.148019
  H 0.453289 -0.460490 -0.691419
  H 1.919600 1.065869 0.228627
  H 3.991911 0.688245 1.485462
  H 3.752137 -1.055044 1.413123
  H 1.771784 -0.870552 2.866519
  H 1.882479 0.898054 2.838308
  H 4.003439 -0.991990 3.966379
  H 2.864716 -0.028206 4.915292
  H 4.105489 0.774399 3.953325
  H 5.124142 0.173563 -0.345136
  H 4.562784 0.279728 -3.366509
  H 6.901267 0.273160 -1.771514
 23
 66.996073
  C 1.015566 -0.449850 0.228938
  C 2.380071 0.098640 0.211359
  C 3.231527 -0.089194 1.472108
  C 2.466946 -0.015179 2.793081
  C 3.425495 -0.066357 3.982198
  C 3.106189 0.111675 -1.055271
  H 2.500688 0.107204 -1.950190
  C 4.486866 0.202880 -1.217730
  C 5.101610 0.278596 -2.429262
  O 6.452996 0.299563 -2.620120
  H 0.440663 -0.421090 1.134836
  H 0.474764 -0.510025 -0.699955
  H 1.973490 1.104441 0.222365
  H 3.997317 0.680622 1.482897
  H 3.738093 -1.060335 1.405018
  H 1.773132 -0.849373 2.866893
  H 1.889150 0.917724 2.836985
  H 4.001345 -0.988763 3.967612
  H 2.874212 -0.021238 4.920238
  H 4.120489 0.771749 3.953738
  H 5.119369 0.179813 -0.339673
  H 4.563178 0.293199 -3.359671
  H 6.897265 0.263660 -1.764693
