 22
 0.000000
  H 1.505113 0.141049 0.393943
  C 2.587280 0.140611 0.387449
  C 3.312099 0.611630 1.565559
  C 2.448461 1.076143 2.729933
  C 3.303526 1.545003 3.902630
  C 3.189102 -0.324771 -0.764098
  C 4.576590 -0.410490 -0.979174
  C 5.167828 -0.875694 -2.131488
  C 4.516637 -1.364093 -3.340180
  H 3.433281 -1.361574 -3.333632
  H 6.249372 -0.892939 -2.175582
  H 3.979447 1.430034 1.264024
  H 3.984289 -0.189583 1.902341
  H 1.804065 0.260469 3.063729
  H 1.803280 1.896640 2.409895
  H 3.938210 0.741614 4.269198
  H 2.671114 1.872562 4.723696
  H 3.937309 2.380492 3.614680
  H 2.532656 -0.647863 -1.557682
  H 5.230038 -0.087018 -0.181063
  H 4.878859 -2.376310 -3.541657
  H 4.878635 -0.775723 -4.188205
 22
 0.553907
  H 1.536623 0.372714 0.341573
  C 2.613739 0.311114 0.325601
  C 3.332305 0.670374 1.547975
  C 2.450396 1.107855 2.707898
  C 3.278513 1.439440 3.944833
  C 3.195960 -0.219177 -0.804254
  C 4.569023 -0.172539 -1.098883
  C 5.161828 -0.755004 -2.195921
  C 4.512835 -1.488579 -3.271066
  H 3.432795 -1.548679 -3.187111
  H 6.241010 -0.670205 -2.275595
  H 4.069867 1.454977 1.327832
  H 3.943093 -0.197705 1.836983
  H 1.745428 0.313051 2.953741
  H 1.868264 1.983541 2.418606
  H 3.852291 0.575369 4.272409
  H 2.630479 1.742029 4.765118
  H 3.969004 2.255784 3.745249
  H 2.542307 -0.718693 -1.501699
  H 5.206371 0.382218 -0.425258
  H 4.941542 -2.491870 -3.326126
  H 4.780909 -1.035462 -4.228369
 22
 2.935614
  H 1.523854 0.496771 0.282768
  C 2.602960 0.418180 0.283522
  C 3.322296 0.691940 1.525269
  C 2.453578 1.091485 2.708137
  C 3.290938 1.298817 3.965484
  C 3.191030 -0.154598 -0.823433
  C 4.547623 -0.046387 -1.167516
  C 5.152144 -0.705364 -2.209277
  C 4.532291 -1.611984 -3.167725
  H 3.463434 -1.738444 -3.038344
  H 6.215728 -0.549259 -2.339121
  H 4.098031 1.451313 1.359356
  H 3.880986 -0.229537 1.730554
  H 1.709824 0.315774 2.898693
  H 1.915707 2.012662 2.475704
  H 3.821430 0.388237 4.233698
  H 2.655024 1.575263 4.802432
  H 4.020030 2.092828 3.822369
  H 2.563104 -0.805992 -1.414156
  H 5.152980 0.639516 -0.591169
  H 5.033715 -2.581623 -3.116152
  H 4.736505 -1.258566 -4.181545
 22
 6.620345
  H 1.543277 0.564540 0.248860
  C 2.620018 0.448981 0.278836
  C 3.318478 0.658532 1.542142
  C 2.453538 1.122255 2.704767
  C 3.271300 1.232363 3.987348
  C 3.210312 -0.161115 -0.810932
  C 4.519201 0.065830 -1.256880
  C 5.128304 -0.602165 -2.289182
  C 4.559587 -1.656585 -3.122270
  H 3.515167 -1.867849 -2.921770
  H 6.149875 -0.327719 -2.519299
  H 4.170610 1.337995 1.407881
  H 3.779732 -0.318405 1.744606
  H 1.635977 0.417262 2.862525
  H 2.014700 2.094126 2.471986
  H 3.709853 0.273174 4.252094
  H 2.639742 1.551438 4.812381
  H 4.072582 1.959278 3.878071
  H 2.634075 -0.951759 -1.273237
  H 5.074548 0.856933 -0.771709
  H 5.152445 -2.565770 -2.996878
  H 4.681802 -1.392858 -4.175006
 22
 11.354399
  H 1.613496 0.682469 0.205272
  C 2.665693 0.437736 0.293349
  C 3.316047 0.589082 1.587658
  C 2.451775 1.143237 2.711001
  C 3.224403 1.183204 4.025046
  C 3.273867 -0.200737 -0.773393
  C 4.497766 0.146061 -1.345967
  C 5.090497 -0.510244 -2.397876
  C 4.595447 -1.692252 -3.098514
  H 3.618936 -2.027712 -2.766257
  H 6.034005 -0.118180 -2.753798
  H 4.236765 1.182999 1.491317
  H 3.675109 -0.424253 1.807690
  H 1.564678 0.521069 2.837451
  H 2.120025 2.151560 2.457454
  H 3.559526 0.188713 4.308764
  H 2.593358 1.564707 4.823467
  H 4.093937 1.830883 3.946786
  H 2.742121 -1.067520 -1.150177
  H 4.988391 1.029183 -0.960968
  H 5.319175 -2.502442 -2.983144
  H 4.567418 -1.493865 -4.171700
 22
 19.364129
  H 1.732183 0.825514 0.163928
  C 2.746448 0.470013 0.312134
  C 3.327060 0.537941 1.642658
  C 2.444932 1.141317 2.727465
  C 3.151804 1.118571 4.077616
  C 3.366875 -0.198668 -0.754447
  C 4.455430 0.243298 -1.489978
  C 5.028244 -0.442168 -2.538263
  C 4.637611 -1.747201 -3.059113
  H 3.759796 -2.167897 -2.581362
  H 5.861189 0.032106 -3.038112
  H 4.289899 1.072212 1.604606
  H 3.616814 -0.493280 1.885000
  H 1.513985 0.577697 2.801552
  H 2.193364 2.171228 2.471257
  H 3.405609 0.102061 4.366612
  H 2.508884 1.534811 4.847610
  H 4.065135 1.706843 4.049575
  H 2.932794 -1.166896 -0.987011
  H 4.863763 1.213682 -1.240715
  H 5.474452 -2.440143 -2.952031
  H 4.469416 -1.673588 -4.134450
 22
 27.852303
  H 1.838454 0.948129 0.150055
  C 2.827281 0.538622 0.326595
  C 3.349349 0.516859 1.680034
  C 2.439234 1.123282 2.742929
  C 3.084197 1.040223 4.122015
  C 3.442224 -0.167458 -0.749365
  C 4.363777 0.327402 -1.640526
  C 4.950134 -0.402587 -2.662195
  C 4.702662 -1.802484 -3.000539
  H 3.925043 -2.269524 -2.406144
  H 5.680018 0.108650 -3.273237
  H 4.328853 1.017633 1.692611
  H 3.600185 -0.525645 1.931387
  H 1.486868 0.591162 2.760269
  H 2.234522 2.167937 2.504548
  H 3.291109 0.007456 4.393928
  H 2.421576 1.458180 4.874875
  H 4.017965 1.597767 4.150436
  H 3.153377 -1.216305 -0.816968
  H 4.647132 1.366369 -1.545070
  H 5.631075 -2.368291 -2.892076
  H 4.448870 -1.881251 -4.059266
 22
 16.349833
  H 2.054889 1.099496 0.134659
  C 2.967534 0.551078 0.350437
  C 3.391127 0.450015 1.739863
  C 2.452501 1.121809 2.742056
  C 2.980755 0.978282 4.164750
  C 3.527940 -0.182133 -0.705858
  C 4.196299 0.363143 -1.797527
  C 4.800314 -0.369030 -2.791350
  C 4.811679 -1.821184 -2.942685
  H 4.215619 -2.348317 -2.209626
  H 5.356117 0.182314 -3.537272
  H 4.399873 0.876308 1.826951
  H 3.536340 -0.607122 2.008296
  H 1.463203 0.668454 2.680430
  H 2.350785 2.181296 2.503936
  H 3.079552 -0.068995 4.439729
  H 2.300136 1.446842 4.870328
  H 3.952254 1.454722 4.269479
  H 3.477558 -1.264041 -0.626945
  H 4.266219 1.439356 -1.851187
  H 5.841512 -2.177388 -2.896825
  H 4.470064 -2.080611 -3.943785
 22
 6.689094
  H 2.240888 1.218210 0.096610
  C 3.083065 0.587811 0.364315
  C 3.401455 0.414744 1.775715
  C 2.464350 1.139363 2.736968
  C 2.884643 0.917431 4.186232
  C 3.663451 -0.174713 -0.636983
  C 4.019205 0.325834 -1.895274
  C 4.614708 -0.405512 -2.892370
  C 4.968146 -1.818325 -2.865414
  H 4.664300 -2.336744 -1.964407
  H 4.859760 0.118086 -3.805692
  H 4.430962 0.757360 1.948608
  H 3.448779 -0.660161 2.005087
  H 1.445711 0.772620 2.598780
  H 2.466078 2.209869 2.523833
  H 2.884252 -0.141379 4.434025
  H 2.196564 1.419439 4.860707
  H 3.880897 1.313146 4.368510
  H 3.866633 -1.215650 -0.412588
  H 3.835458 1.375607 -2.077783
  H 6.049073 -1.919047 -2.993937
  H 4.540921 -2.310912 -3.738796
 22
 5.852724
  H 2.429531 1.454646 0.025974
  C 3.231554 0.810087 0.341836
  C 3.499386 0.563837 1.755105
  C 2.440368 1.067320 2.729557
  C 2.838867 0.771882 4.169706
  C 3.715100 -0.064816 -0.607440
  C 3.934290 0.297557 -1.938058
  C 4.498518 -0.510963 -2.894989
  C 4.949257 -1.887318 -2.735008
  H 4.769963 -2.304715 -1.751115
  H 4.622359 -0.089676 -3.884006
  H 4.454165 1.033995 2.015305
  H 3.690996 -0.517590 1.830637
  H 1.476555 0.611820 2.501625
  H 2.338073 2.148420 2.616330
  H 2.957397 -0.296930 4.329669
  H 2.073044 1.130401 4.851710
  H 3.773028 1.265072 4.425364
  H 4.076936 -1.028025 -0.247293
  H 3.610782 1.286261 -2.236178
  H 6.017272 -1.944546 -2.967391
  H 4.476000 -2.509213 -3.497751
