 24
 0.000000
  C 0.892815 0.057653 0.288244
  C 2.384962 0.085916 0.090599
  C 3.242246 0.015559 1.345935
  C 2.539911 -0.115124 2.694577
  H 3.279263 -0.158093 3.487613
  C 2.967221 0.149080 -1.111070
  C 2.334764 0.195644 -2.481977
  C 0.827585 0.243541 -2.715885
  C 0.534621 0.287813 -4.213627
  H 4.046533 0.144851 -1.172714
  H 0.615205 -0.000101 1.334511
  H 0.455615 -0.811270 -0.195988
  H 0.432929 0.960486 -0.104663
  H 3.861271 0.911765 1.400937
  H 3.917617 -0.840234 1.245190
  H 1.942377 -1.024520 2.738818
  H 1.891599 0.739301 2.882396
  H 2.713235 -0.680740 -3.024540
  H 2.760383 1.073540 -2.985698
  H 0.395192 1.132319 -2.257881
  H 0.344009 -0.639240 -2.301190
  H 0.981358 1.168871 -4.670370
  H -0.539147 0.322656 -4.386045
  H 0.930960 -0.594577 -4.712321
 24
 -1.519247
  C 0.844988 -0.236848 0.306707
  C 2.319930 -0.041891 0.096790
  C 3.225069 -0.013918 1.320650
  C 2.559117 0.065945 2.689179
  H 3.328522 0.124214 3.455917
  C 2.901110 0.095637 -1.093036
  C 2.339998 0.136613 -2.489669
  C 0.844134 0.325975 -2.723401
  C 0.548486 0.409953 -4.217877
  H 3.982983 0.172983 -1.108217
  H 0.604252 -0.367334 1.354760
  H 0.501541 -1.123758 -0.221282
  H 0.281757 0.618883 -0.056064
  H 3.876419 0.856661 1.220048
  H 3.864330 -0.901661 1.301066
  H 1.955103 -0.814635 2.896341
  H 1.934944 0.953330 2.768992
  H 2.655308 -0.784246 -2.997619
  H 2.856193 0.956640 -3.003752
  H 0.510403 1.248486 -2.246394
  H 0.280892 -0.505415 -2.304618
  H 1.079138 1.245791 -4.669614
  H -0.516778 0.549306 -4.388366
  H 0.858996 -0.503287 -4.721640
 24
 -1.963705
  C 0.878870 -0.503249 0.286234
  C 2.332264 -0.176525 0.090277
  C 3.221647 -0.094628 1.322657
  C 2.530040 0.296274 2.625233
  H 3.275048 0.389038 3.413303
  C 2.907254 0.057075 -1.086637
  C 2.351096 0.123829 -2.483904
  C 0.858942 0.374284 -2.685725
  C 0.538479 0.525475 -4.169517
  H 3.984655 0.186292 -1.093743
  H 0.668798 -0.748082 1.321073
  H 0.600953 -1.363223 -0.320240
  H 0.243415 0.333577 0.006292
  H 3.961151 0.674213 1.098179
  H 3.740053 -1.047111 1.462923
  H 1.807314 -0.449947 2.944655
  H 2.024318 1.253159 2.519126
  H 2.626904 -0.800775 -3.006693
  H 2.890238 0.932419 -2.990081
  H 0.570670 1.288852 -2.164139
  H 0.273271 -0.450417 -2.284751
  H 1.089683 1.359311 -4.599947
  H -0.524198 0.707274 -4.314219
  H 0.808348 -0.378136 -4.712600
 24
 -3.304095
  C 0.948172 -0.745122 0.260613
  C 2.365951 -0.282917 0.082254
  C 3.203649 -0.163163 1.336677
  C 2.492830 0.525384 2.500654
  H 3.181997 0.635496 3.335422
  C 2.934954 0.021714 -1.080354
  C 2.359218 0.098679 -2.469670
  C 0.874512 0.419892 -2.627715
  C 0.528000 0.644183 -4.096151
  H 3.998788 0.229981 -1.076694
  H 0.796674 -1.128076 1.265757
  H 0.723052 -1.549008 -0.437375
  H 0.238387 0.062754 0.096988
  H 4.062525 0.450174 1.066019
  H 3.551440 -1.149961 1.653700
  H 1.634931 -0.041614 2.851324
  H 2.153652 1.514706 2.202157
  H 2.580538 -0.837523 -2.997161
  H 2.918122 0.883549 -2.990195
  H 0.639930 1.323533 -2.061495
  H 0.260477 -0.392905 -2.246024
  H 1.101641 1.473246 -4.505924
  H -0.529719 0.871850 -4.208716
  H 0.750793 -0.246221 -4.680860
 24
 -1.833837
  C 1.011536 -0.999333 0.231367
  C 2.396203 -0.440771 0.077004
  C 3.170604 -0.231776 1.356794
  C 2.441010 0.756302 2.270528
  H 3.036689 0.948822 3.160431
  C 2.979757 -0.075576 -1.062531
  C 2.376249 0.069156 -2.435502
  C 0.902413 0.458652 -2.522138
  C 0.517419 0.801550 -3.957488
  H 4.058794 0.013228 -1.077692
  H 0.900532 -1.428295 1.224783
  H 0.841206 -1.785753 -0.500905
  H 0.240236 -0.241212 0.107624
  H 4.084131 0.254452 1.026253
  H 3.352258 -1.163854 1.890984
  H 1.475341 0.369802 2.587337
  H 2.279908 1.697612 1.750499
  H 2.537990 -0.853113 -3.007379
  H 2.952620 0.851375 -2.940493
  H 0.722102 1.325398 -1.882732
  H 0.270164 -0.356820 -2.177210
  H 1.102701 1.642774 -4.323721
  H -0.535991 1.065990 -4.018164
  H 0.695418 -0.048583 -4.613135
 24
 6.449094
  C 1.027014 -1.169591 0.218477
  C 2.378264 -0.534530 0.089171
  C 3.114502 -0.270347 1.377764
  C 2.441227 0.910442 2.093801
  H 3.016310 1.187839 2.974451
  C 3.003168 -0.156254 -1.043237
  C 2.382691 0.041350 -2.405899
  C 0.932333 0.513814 -2.446569
  C 0.535281 0.934406 -3.858188
  H 4.072650 -0.307196 -1.099803
  H 0.938523 -1.614819 1.206950
  H 0.917436 -1.949911 -0.531211
  H 0.201734 -0.469916 0.102889
  H 4.051923 0.134878 1.016789
  H 3.178945 -1.123532 2.044071
  H 1.432803 0.655423 2.414831
  H 2.382049 1.767622 1.428467
  H 2.475964 -0.876687 -2.998296
  H 2.991948 0.799583 -2.909073
  H 0.812919 1.361219 -1.768960
  H 0.264073 -0.277880 -2.117571
  H 1.168918 1.745135 -4.212248
  H -0.498175 1.274007 -3.880284
  H 0.635804 0.097847 -4.547100
 24
 25.946698
  C 0.986468 -1.443577 0.205039
  C 2.261331 -0.670651 0.125424
  C 3.014250 -0.280660 1.378098
  C 2.509550 1.065844 1.936857
  H 3.178032 1.402131 2.725545
  C 2.931796 -0.271479 -0.972746
  C 2.379616 0.009322 -2.352139
  C 0.995026 0.651768 -2.371685
  C 0.603540 1.089134 -3.778811
  H 3.966769 -0.575953 -1.057657
  H 0.855783 -1.809924 1.221246
  H 1.025642 -2.284710 -0.482468
  H 0.103568 -0.853979 -0.042330
  H 3.874656 0.107377 0.808331
  H 3.039258 -1.027613 2.160171
  H 1.509241 0.974353 2.363070
  H 2.473592 1.817833 1.153717
  H 2.357417 -0.908426 -2.953572
  H 3.085712 0.688927 -2.838569
  H 0.990122 1.516188 -1.703999
  H 0.254671 -0.056812 -2.004346
  H 1.278675 1.861166 -4.143818
  H -0.408911 1.487232 -3.789327
  H 0.647096 0.245926 -4.465268
 24
 53.273508
  C 0.944105 -1.592428 0.191714
  C 2.193419 -0.773339 0.151006
  C 2.904195 -0.247378 1.350811
  C 2.532510 1.176754 1.819142
  H 3.309906 1.557515 2.475679
  C 2.934625 -0.363795 -0.928661
  C 2.399525 -0.028471 -2.308862
  C 1.044680 0.675897 -2.307657
  C 0.677649 1.186768 -3.695937
  H 3.915313 -0.812186 -1.018121
  H 0.805920 -1.979881 1.198705
  H 1.008677 -2.420739 -0.512204
  H 0.052650 -1.011846 -0.059991
  H 3.676811 0.183076 0.570985
  H 2.990557 -0.910565 2.208311
  H 1.595522 1.169324 2.383738
  H 2.408247 1.855528 0.980058
  H 2.335599 -0.935995 -2.925574
  H 3.133703 0.626463 -2.788039
  H 1.077996 1.514975 -1.607152
  H 0.270376 -0.010017 -1.965484
  H 1.404078 1.920632 -4.039805
  H -0.303855 1.655593 -3.685499
  H 0.658010 0.365875 -4.410720
 24
 71.519890
  C 0.969649 -1.721440 0.219843
  C 2.167895 -0.838818 0.204928
  C 2.787504 -0.236622 1.331753
  C 2.513099 1.219428 1.694421
  H 3.312911 1.619045 2.316151
  C 2.951917 -0.385040 -0.894491
  C 2.418311 -0.016247 -2.267763
  C 1.078369 0.714099 -2.244194
  C 0.708728 1.251530 -3.621195
  H 3.915938 -0.877313 -1.006024
  H 0.797694 -2.083104 1.232402
  H 1.086986 -2.572689 -0.451465
  H 0.079062 -1.172413 -0.089511
  H 3.632667 0.236389 0.224114
  H 2.845644 -0.827557 2.255742
  H 1.585155 1.275862 2.269882
  H 2.404291 1.852620 0.816090
  H 2.334092 -0.916334 -2.886124
  H 3.158068 0.630924 -2.748661
  H 1.133225 1.541420 -1.532141
  H 0.294486 0.036636 -1.905560
  H 1.454497 1.963887 -3.968414
  H -0.255966 1.753452 -3.591285
  H 0.650329 0.439619 -4.343760
 24
 53.505256
  C 1.019314 -1.813789 0.202953
  C 2.164419 -0.864717 0.249328
  C 2.667022 -0.231810 1.352204
  C 2.465383 1.244407 1.615043
  H 3.269669 1.660204 2.228304
  C 3.014300 -0.365503 -0.875629
  C 2.436223 -0.012329 -2.228010
  C 1.132474 0.774427 -2.162973
  C 0.713793 1.279883 -3.537031
  H 3.918195 -0.973077 -1.001348
  H 0.821551 -2.202404 1.200350
  H 1.194528 -2.646518 -0.477609
  H 0.130827 -1.287984 -0.129931
  H 3.609869 0.273409 -0.064987
  H 2.663386 -0.743499 2.332469
  H 1.535521 1.353539 2.174061
  H 2.386812 1.829861 0.701646
  H 2.287250 -0.928432 -2.802727
  H 3.173183 0.587888 -2.769827
  H 1.256839 1.620037 -1.486541
  H 0.339040 0.145950 -1.758958
  H 1.478617 1.935883 -3.953894
  H -0.216464 1.838842 -3.473761
  H 0.570931 0.447735 -4.221675
 24
 30.638491
  C 1.095379 -1.872615 0.190648
  C 2.199023 -0.879645 0.282317
  C 2.558896 -0.211128 1.393874
  C 2.466309 1.272206 1.613357
  H 3.241198 1.643636 2.285291
  C 3.009541 -0.406673 -0.886220
  C 2.420235 -0.031109 -2.235692
  C 1.140947 0.796819 -2.143855
  C 0.708270 1.309419 -3.512237
  H 3.917205 -1.015077 -1.025563
  H 0.838793 -2.250056 1.180199
  H 1.329916 -2.715701 -0.459331
  H 0.222147 -1.364060 -0.216186
  H 3.589956 0.372970 -0.301871
  H 2.475094 -0.709779 2.364021
  H 1.499529 1.457589 2.081164
  H 2.518578 1.841808 0.687197
  H 2.230877 -0.938834 -2.815341
  H 3.166998 0.550595 -2.784262
  H 1.308682 1.643200 -1.474307
  H 0.337583 0.193063 -1.720587
  H 1.470989 1.958260 -3.937942
  H -0.218232 1.874307 -3.435404
  H 0.546464 0.478606 -4.196243
 24
 12.819775
  C 1.187608 -1.926130 0.121831
  C 2.194714 -0.838013 0.283536
  C 2.431120 -0.188858 1.427515
  C 2.490866 1.295880 1.640269
  H 3.243999 1.579056 2.377214
  C 3.021689 -0.352030 -0.877008
  C 2.402675 -0.022113 -2.227020
  C 1.145400 0.839237 -2.125739
  C 0.674063 1.305574 -3.497999
  H 3.870482 -1.040722 -1.015110
  H 0.872003 -2.305185 1.092121
  H 1.552029 -2.757676 -0.482380
  H 0.318246 -1.502938 -0.377593
  H 3.590619 0.465481 -0.397757
  H 2.234328 -0.673401 2.385663
  H 1.517416 1.591105 2.030868
  H 2.678193 1.855059 0.727027
  H 2.173655 -0.948294 -2.759458
  H 3.144384 0.518328 -2.821612
  H 1.356440 1.707976 -1.498503
  H 0.344119 0.275322 -1.647063
  H 1.439497 1.909643 -3.981063
  H -0.229510 1.904866 -3.410798
  H 0.459996 0.451869 -4.137946
 24
 -0.751758
  C 1.307185 -1.955012 0.055375
  C 2.179558 -0.758625 0.275647
  C 2.250433 -0.127206 1.443657
  C 2.517755 1.325854 1.697460
  H 3.218335 1.470100 2.520714
  C 3.036206 -0.289142 -0.869634
  C 2.377491 -0.029568 -2.220724
  C 1.155766 0.881952 -2.120696
  C 0.628497 1.266560 -3.497935
  H 3.830673 -1.039351 -0.991090
  H 0.939579 -2.346074 1.001628
  H 1.825768 -2.751358 -0.478924
  H 0.450405 -1.654137 -0.544677
  H 3.588113 0.584858 -0.504768
  H 1.877019 -0.599795 2.348949
  H 1.570414 1.780879 1.987057
  H 2.895712 1.854394 0.827283
  H 2.098288 -0.977477 -2.685529
  H 3.110836 0.450775 -2.874027
  H 1.429711 1.784729 -1.570183
  H 0.362831 0.385462 -1.560044
  H 1.387681 1.803661 -4.062874
  H -0.247743 1.904911 -3.409238
  H 0.349863 0.378099 -4.061222
 24
 -7.444572
  C 1.396174 -1.991594 0.027642
  C 2.155356 -0.716241 0.251040
  C 2.078926 -0.061915 1.403204
  C 2.526595 1.331097 1.717924
  H 3.173765 1.340475 2.595512
  C 3.053180 -0.283681 -0.876371
  C 2.354467 -0.051051 -2.216499
  C 1.189854 0.929728 -2.099805
  C 0.595486 1.264827 -3.462315
  H 3.811872 -1.065334 -0.999095
  H 0.942617 -2.342468 0.951491
  H 2.044927 -2.773970 -0.365423
  H 0.602100 -1.822864 -0.698417
  H 3.591155 0.613736 -0.567803
  H 1.548592 -0.510313 2.236839
  H 1.646693 1.930504 1.953294
  H 3.051667 1.808438 0.896677
  H 1.998333 -1.001736 -2.618474
  H 3.082549 0.350780 -2.926009
  H 1.542184 1.846318 -1.621349
  H 0.413804 0.505499 -1.460278
  H 1.345047 1.722185 -4.105026
  H -0.236015 1.958197 -3.358487
  H 0.231047 0.363871 -3.952064
 24
 -9.234077
  C 1.499997 -2.062430 0.054226
  C 2.161645 -0.725249 0.236754
  C 1.961040 -0.022135 1.343849
  C 2.479561 1.333070 1.698619
  H 3.086302 1.275749 2.602906
  C 3.062308 -0.303962 -0.893587
  C 2.321035 -0.064114 -2.212216
  C 1.243110 1.006832 -2.085462
  C 0.580589 1.302861 -3.424969
  H 3.806007 -1.091874 -1.045445
  H 0.999562 -2.379991 0.966081
  H 2.233295 -2.817454 -0.222217
  H 0.756416 -2.014256 -0.740922
  H 3.585509 0.606499 -0.607950
  H 1.306504 -0.451937 2.093340
  H 1.641860 1.996627 1.908073
  H 3.078383 1.778664 0.909344
  H 1.867932 -0.996265 -2.554663
  H 3.046496 0.244543 -2.972002
  H 1.691188 1.922417 -1.691933
  H 0.486482 0.677966 -1.368481
  H 1.313515 1.671421 -4.142265
  H -0.195211 2.055203 -3.310502
  H 0.126853 0.402302 -3.834373
