 23
 0.000000
  C 0.952160 0.174508 0.485014
  C 2.411319 0.124668 0.360787
  H 3.032821 0.453780 1.179471
  C 2.990219 -0.341752 -0.800051
  C 4.371770 -0.414408 -0.982154
  C 5.091234 -0.859889 -2.092787
  C 4.624348 -1.385244 -3.401889
  C 3.142263 -1.516173 -3.728454
  C 2.971646 -2.081220 -5.136708
  O 6.404692 -0.839634 -2.043164
  H 0.622681 0.560252 1.444494
  H 0.530756 -0.822149 0.337681
  H 0.530523 0.791722 -0.311169
  H 2.328094 -0.658461 -1.587723
  H 4.975811 -0.078151 -0.145638
  H 5.099537 -2.366762 -3.518508
  H 5.099736 -0.756827 -4.164686
  H 2.656859 -0.540793 -3.689181
  H 2.656744 -2.193849 -3.025912
  H 3.428021 -1.428367 -5.876966
  H 1.916637 -2.178422 -5.379184
  H 3.427958 -3.064697 -5.220395
  H 6.771782 -0.503203 -1.203273
 23
 -0.084982
  C 0.961638 0.048606 0.610428
  C 2.391724 0.153038 0.324268
  H 3.011021 0.725674 1.001402
  C 2.971113 -0.437970 -0.774669
  C 4.341075 -0.340592 -1.022588
  C 5.066480 -0.854440 -2.100774
  C 4.589331 -1.550023 -3.326545
  C 3.168647 -1.338206 -3.845744
  C 3.022110 -1.984284 -5.220475
  O 6.374074 -0.763289 -2.090736
  H 0.676669 0.592402 1.504268
  H 0.675494 -1.000620 0.716792
  H 0.377564 0.410399 -0.238862
  H 2.339930 -1.004004 -1.437926
  H 4.908982 0.198683 -0.272688
  H 4.752989 -2.623220 -3.171514
  H 5.294453 -1.266842 -4.114704
  H 2.960022 -0.271249 -3.930671
  H 2.433686 -1.790915 -3.185708
  H 3.727550 -1.558769 -5.930402
  H 2.019051 -1.824170 -5.607156
  H 3.196323 -3.056241 -5.166807
  H 6.762022 -0.318423 -1.311922
 23
 -0.052628
  C 0.961516 -0.172306 0.588902
  C 2.357209 0.109782 0.253510
  H 2.866662 0.890900 0.800469
  C 3.030245 -0.553149 -0.743863
  C 4.369789 -0.288637 -1.039350
  C 5.090649 -0.808580 -2.115639
  C 4.540232 -1.608753 -3.238556
  C 3.300519 -1.045108 -3.948887
  C 2.939308 -1.922142 -5.141673
  O 6.397511 -0.770927 -2.107262
  H 0.586745 0.473881 1.375131
  H 0.854179 -1.216213 0.893618
  H 0.327828 -0.074866 -0.295550
  H 2.517928 -1.343703 -1.271748
  H 4.862931 0.414955 -0.379160
  H 4.320010 -2.616473 -2.868236
  H 5.343258 -1.711284 -3.971983
  H 3.517171 -0.035163 -4.299216
  H 2.444272 -0.993170 -3.280858
  H 3.771736 -1.996002 -5.837602
  H 2.091107 -1.500867 -5.675154
  H 2.673019 -2.925746 -4.820310
  H 6.808885 -0.138107 -1.486413
 23
 7.517324
  C 0.936715 -0.357820 0.510344
  C 2.288700 0.061574 0.142694
  H 2.670179 0.984120 0.559241
  C 3.076324 -0.649719 -0.727994
  C 4.371452 -0.245450 -1.068120
  C 5.141853 -0.758196 -2.115462
  C 4.560239 -1.603624 -3.185959
  C 3.492292 -0.869935 -4.019213
  C 2.793722 -1.832833 -4.969456
  O 6.447990 -0.857808 -1.978910
  H 0.452671 0.348673 1.175943
  H 0.968789 -1.342988 0.981990
  H 0.319742 -0.494999 -0.380442
  H 2.694313 -1.574873 -1.136855
  H 4.788216 0.562822 -0.477623
  H 4.090693 -2.481765 -2.731776
  H 5.364816 -1.951852 -3.834119
  H 3.973188 -0.080173 -4.598036
  H 2.757222 -0.408062 -3.360977
  H 3.510658 -2.316383 -5.628474
  H 2.077570 -1.296746 -5.587112
  H 2.258654 -2.604230 -4.421248
  H 6.942405 -0.047043 -1.758884
 23
 7.517324
  C 0.936715 -0.357820 0.510344
  C 2.288700 0.061574 0.142694
  H 2.670179 0.984120 0.559241
  C 3.076324 -0.649719 -0.727994
  C 4.371452 -0.245450 -1.068120
  C 5.141853 -0.758196 -2.115462
  C 4.560239 -1.603624 -3.185959
  C 3.492292 -0.869935 -4.019213
  C 2.793722 -1.832833 -4.969456
  O 6.447990 -0.857808 -1.978910
  H 0.452671 0.348673 1.175943
  H 0.968789 -1.342988 0.981990
  H 0.319742 -0.494999 -0.380442
  H 2.694313 -1.574873 -1.136855
  H 4.788216 0.562822 -0.477623
  H 4.090693 -2.481765 -2.731776
  H 5.364816 -1.951852 -3.834119
  H 3.973188 -0.080173 -4.598036
  H 2.757222 -0.408062 -3.360977
  H 3.510658 -2.316383 -5.628474
  H 2.077570 -1.296746 -5.587112
  H 2.258654 -2.604230 -4.421248
  H 6.942405 -0.047043 -1.758884
 23
 25.554153
  C 0.930154 -0.379679 0.537750
  C 2.259155 0.076273 0.125187
  H 2.538332 1.096713 0.350668
  C 3.128041 -0.712229 -0.577870
  C 4.387828 -0.260495 -1.008030
  C 5.097955 -0.682425 -2.136952
  C 4.551596 -1.537105 -3.207815
  C 3.499882 -0.835492 -4.085098
  C 2.804846 -1.826107 -5.008945
  O 6.372042 -0.954874 -1.794336
  H 0.377503 0.395119 1.060550
  H 1.025170 -1.258657 1.179612
  H 0.346952 -0.711070 -0.323930
  H 2.855043 -1.735998 -0.796102
  H 4.750181 0.619608 -0.486747
  H 4.065005 -2.398695 -2.735005
  H 5.372736 -1.912045 -3.819269
  H 3.991754 -0.068918 -4.685214
  H 2.760257 -0.347589 -3.448965
  H 3.523169 -2.320915 -5.658096
  H 2.082525 -1.311472 -5.637414
  H 2.275957 -2.586602 -4.440103
  H 7.053335 -0.268956 -1.895644
 23
 60.663004
  C 1.000468 -0.369470 0.741939
  C 2.296910 0.110932 0.218965
  H 2.497265 1.170590 0.294737
  C 3.190495 -0.699428 -0.380723
  C 4.403675 -0.202272 -0.962066
  C 4.883913 -0.623274 -2.221564
  C 4.449522 -1.504860 -3.298064
  C 3.515395 -0.819117 -4.308323
  C 2.926557 -1.831940 -5.282406
  O 6.008967 -1.122012 -1.500633
  H 0.410595 0.446760 1.146212
  H 1.168524 -1.109215 1.524362
  H 0.423295 -0.863679 -0.038098
  H 3.002075 -1.761280 -0.456659
  H 4.745092 0.724059 -0.517346
  H 3.901922 -2.353308 -2.861051
  H 5.330589 -1.908282 -3.798941
  H 4.079432 -0.070678 -4.865378
  H 2.710022 -0.313467 -3.775013
  H 3.713398 -2.357545 -5.818089
  H 2.298393 -1.330564 -6.014027
  H 2.315220 -2.565003 -4.761815
  H 6.813469 -0.564890 -1.548359
 23
 60.109405
  C 1.116086 -0.297803 0.901719
  C 2.367479 0.169126 0.241859
  H 2.513091 1.238095 0.177375
  C 3.267945 -0.656948 -0.281412
  C 4.484531 -0.164640 -0.968090
  C 4.706537 -0.639711 -2.306304
  C 4.342967 -1.561666 -3.360967
  C 3.518998 -0.865554 -4.454676
  C 3.020415 -1.876676 -5.479588
  O 5.559440 -1.133593 -1.170875
  H 0.511390 0.540525 1.231968
  H 1.350465 -0.917141 1.766247
  H 0.526279 -0.907367 0.219863
  H 3.137813 -1.727605 -0.234102
  H 4.774800 0.828062 -0.640964
  H 3.748626 -2.402845 -2.967234
  H 5.254747 -1.983343 -3.790430
  H 4.133863 -0.115393 -4.951667
  H 2.669369 -0.353982 -4.001674
  H 3.851373 -2.405901 -5.939809
  H 2.466038 -1.371925 -6.266201
  H 2.359207 -2.606604 -5.018597
  H 6.447405 -0.701942 -1.179857
 23
 80.352467
  C 1.143621 -0.246605 0.618334
  C 2.420651 0.149741 -0.040346
  H 2.546680 1.200394 -0.261356
  C 3.364482 -0.724231 -0.377141
  C 4.718484 -0.278551 -0.927733
  C 4.627451 -0.730717 -2.281675
  C 4.363660 -1.607112 -3.339826
  C 3.340405 -0.857836 -4.252266
  C 2.900714 -1.784413 -5.374605
  O 5.741954 -1.228355 -0.786536
  H 0.503053 0.614665 0.776596
  H 1.346155 -0.710723 1.582111
  H 0.607416 -0.979551 0.018164
  H 3.275115 -1.779900 -0.176061
  H 4.841899 0.755578 -0.619622
  H 3.931849 -2.571756 -3.031895
  H 5.267395 -1.810082 -3.926505
  H 3.799951 0.041834 -4.656560
  H 2.475705 -0.560035 -3.659088
  H 3.745615 -2.104916 -5.977029
  H 2.200488 -1.257804 -6.017961
  H 2.395300 -2.663052 -4.982624
  H 6.610580 -0.783038 -0.763530
 23
 64.655379
  C 1.339901 -0.362969 -0.031798
  C 2.679817 0.003416 -0.507146
  H 2.862910 1.050665 -0.707825
  C 3.672526 -0.910612 -0.695263
  C 5.142890 -0.387240 -0.845521
  C 4.700060 -0.859059 -2.069649
  C 4.212648 -1.520858 -3.230048
  C 2.985046 -0.812730 -3.855188
  C 2.412819 -1.643572 -4.992903
  O 6.259349 -1.076373 -0.383144
  H 0.691749 0.504141 0.024767
  H 1.402036 -0.822478 0.955189
  H 0.888148 -1.107459 -0.685253
  H 3.535564 -1.963236 -0.481967
  H 5.158777 0.661370 -0.560050
  H 3.931178 -2.552355 -2.990571
  H 5.016249 -1.554191 -3.971968
  H 3.274508 0.173236 -4.213925
  H 2.222683 -0.673433 -3.087058
  H 3.147598 -1.809612 -5.774210
  H 1.558234 -1.130799 -5.427156
  H 2.059774 -2.606716 -4.630300
  H 7.030642 -0.503033 -0.269776
 23
 57.015284
  C 1.422855 -0.205897 0.155692
  C 2.748287 0.121708 -0.384363
  H 3.068274 1.153024 -0.336235
  C 3.575345 -0.831482 -0.939938
  C 5.198649 -0.461354 -0.853105
  C 4.608094 -0.585833 -2.115479
  C 4.232776 -1.310690 -3.318261
  C 2.839351 -0.950225 -3.855154
  C 2.492726 -1.820736 -5.055659
  O 6.261784 -1.242822 -0.549467
  H 0.911610 0.678803 0.519023
  H 1.510912 -0.926818 0.970213
  H 0.805806 -0.689975 -0.602401
  H 3.250285 -1.865218 -0.948006
  H 5.164659 0.486164 -0.321603
  H 4.273747 -2.390753 -3.120934
  H 4.974244 -1.110982 -4.100249
  H 2.827302 0.100070 -4.146222
  H 2.087905 -1.093753 -3.079555
  H 3.223204 -1.699870 -5.851862
  H 1.518008 -1.544358 -5.449462
  H 2.457549 -2.871448 -4.777975
  H 7.033554 -0.769452 -0.202064
 23
 36.912612
  C 1.403123 0.150269 0.453216
  C 2.715995 0.270216 -0.209663
  H 3.315350 1.135769 0.034184
  C 3.162620 -0.644490 -1.105219
  C 5.260507 -0.625756 -0.964398
  C 4.360646 -0.507070 -1.997913
  C 4.167432 -1.203096 -3.294393
  C 2.750600 -1.283118 -3.869232
  C 2.765900 -2.071722 -5.173964
  O 6.394844 -1.299646 -1.028200
  H 1.204052 0.994430 1.103867
  H 1.355276 -0.772658 1.033357
  H 0.604667 0.077487 -0.285983
  H 2.544733 -1.496079 -1.337886
  H 5.198581 0.085680 -0.144601
  H 4.594092 -2.211922 -3.209952
  H 4.785588 -0.686735 -4.040084
  H 2.383246 -0.274487 -4.065013
  H 2.058581 -1.766168 -3.183541
  H 3.435750 -1.618408 -5.899747
  H 1.770648 -2.098798 -5.610414
  H 3.087807 -3.095688 -5.002662
  H 7.168734 -0.907263 -0.581414
