 20
 0.000000
  C -0.718312 2.060506 1.711967
  C -1.788502 1.356567 0.882469
  C -2.492566 2.352916 -0.040634
  C -1.202990 0.222235 0.071495
  O -0.004338 0.015206 0.006688
  C -2.169744 -0.661140 -0.663442
  H -1.161890 2.843019 2.322606
  H 0.033695 2.514533 1.070811
  H -0.219734 1.356360 2.374671
  H -2.521766 0.916659 1.567983
  H -1.800670 2.754035 -0.779001
  H -2.897265 3.181768 0.534769
  H -3.317208 1.887542 -0.576857
  H -3.198574 -0.432293 -0.399334
  H -1.969813 -1.699026 -0.407119
  H -2.036274 -0.521681 -1.733489
  O 3.262540 0.169319 0.042384
  H 3.770875 -0.655518 -0.112980
  H 3.513925 0.589782 0.891505
  H 2.295699 0.004167 -0.001932
 20
 -1.559632
  C -0.708625 2.085127 1.725459
  C -1.732467 1.360360 0.899125
  C -2.447764 2.334976 -0.038868
  C -1.113209 0.238145 0.085076
  O 0.093597 0.068198 0.020682
  C -2.064430 -0.663688 -0.654971
  H -1.184532 2.855123 2.321834
  H 0.028247 2.558570 1.082271
  H -0.208936 1.391211 2.397586
  H -2.470167 0.907589 1.569343
  H -1.746436 2.751133 -0.755205
  H -2.871810 3.148274 0.538767
  H -3.252038 1.850078 -0.584411
  H -3.097456 -0.470480 -0.403348
  H -1.829697 -1.695552 -0.427289
  H -1.926609 -0.530026 -1.720321
  O 3.039087 0.157600 0.013601
  H 3.480148 -0.680575 -0.146397
  H 3.310233 0.545348 0.846239
  H 2.078942 0.039852 -0.009521
 20
 -3.432011
  C -0.664033 2.086655 1.737343
  C -1.695261 1.345053 0.893370
  C -2.417293 2.311343 -0.051193
  C -1.068611 0.242150 0.088955
  O 0.134038 0.087099 0.019680
  C -1.995796 -0.659093 -0.643710
  H -1.154769 2.859462 2.335288
  H 0.074338 2.568934 1.094112
  H -0.160900 1.401408 2.415131
  H -2.444719 0.882957 1.551012
  H -1.716507 2.743911 -0.763487
  H -2.857448 3.121406 0.527088
  H -3.210469 1.817314 -0.602419
  H -3.047937 -0.477742 -0.388783
  H -1.736308 -1.701965 -0.424238
  H -1.849102 -0.516866 -1.721263
  O 2.849023 0.185027 -0.002485
  H 3.286043 -0.689302 -0.169185
  H 3.158021 0.568728 0.855795
  H 1.872659 0.059173 0.000716
 20
 -2.629357
  C -0.680244 2.134473 1.611664
  C -1.680839 1.313192 0.783026
  C -2.403881 2.206775 -0.232629
  C -1.007664 0.188267 0.047073
  O 0.214428 0.083592 -0.047900
  C -1.896192 -0.814300 -0.617155
  H -1.203802 2.916595 2.153525
  H 0.052730 2.602329 0.961328
  H -0.176848 1.501885 2.333302
  H -2.428931 0.873587 1.452853
  H -1.694636 2.625051 -0.945166
  H -2.887364 3.029980 0.289864
  H -3.166108 1.657878 -0.780835
  H -2.946463 -0.666464 -0.381223
  H -1.590648 -1.816024 -0.319021
  H -1.753100 -0.747437 -1.697207
  O 2.717475 0.457497 0.394765
  H 3.271912 -0.329643 0.208967
  H 2.856223 0.782126 1.307194
  H 1.733016 0.214185 0.223199
 20
 -1.127661
  C -0.705327 2.157616 1.638553
  C -1.681547 1.328575 0.801113
  C -2.404691 2.216412 -0.229273
  C -0.980615 0.219586 0.070645
  O 0.274507 0.135007 -0.011412
  C -1.829532 -0.799930 -0.599547
  H -1.251529 2.934953 2.178733
  H 0.031736 2.639657 0.994373
  H -0.195882 1.522021 2.374291
  H -2.435594 0.874388 1.454005
  H -1.688394 2.651989 -0.923469
  H -2.915245 3.026202 0.285434
  H -3.138032 1.658446 -0.794226
  H -2.880459 -0.677624 -0.371022
  H -1.498365 -1.803852 -0.299402
  H -1.679907 -0.734720 -1.677621
  O 2.652809 0.386638 0.330166
  H 3.135122 -0.423016 0.030746
  H 2.877281 0.593027 1.257979
  H 1.597208 0.272585 0.226177
 20
 3.119447
  C -0.665164 2.135888 1.651899
  C -1.658248 1.317110 0.810534
  C -2.355483 2.211600 -0.218861
  C -0.981136 0.190750 0.068134
  O 0.245801 0.096016 -0.021376
  C -1.842543 -0.811149 -0.603546
  H -1.189771 2.922267 2.177226
  H 0.081176 2.593099 1.018567
  H -0.185780 1.510232 2.381213
  H -2.420193 0.881304 1.467109
  H -1.630034 2.626854 -0.911208
  H -2.846198 3.033137 0.294375
  H -3.104154 1.665914 -0.782192
  H -2.890882 -0.685049 -0.363708
  H -1.517466 -1.806487 -0.325579
  H -1.703349 -0.733092 -1.684146
  O 2.575943 0.439297 0.323327
  H 3.059309 -0.306531 -0.031012
  H 2.814765 0.575427 1.257901
  H 1.436506 0.270353 0.207775
 20
 3.649295
  C -0.528692 2.037679 1.586711
  C -1.590696 1.275828 0.802234
  C -2.304252 2.206713 -0.190073
  C -1.012080 0.137689 0.025235
  O 0.201614 -0.027011 -0.137590
  C -1.933551 -0.819731 -0.626552
  H -0.996316 2.841159 2.146499
  H 0.203349 2.473773 0.914457
  H -0.035387 1.381448 2.288510
  H -2.341203 0.871714 1.496043
  H -1.596529 2.608520 -0.908650
  H -2.744882 3.037170 0.354654
  H -3.092531 1.693466 -0.725432
  H -2.968215 -0.655614 -0.351541
  H -1.635282 -1.832580 -0.372334
  H -1.826279 -0.736981 -1.708817
  O 2.473514 0.604531 0.427487
  H 3.045372 -0.111144 0.133889
  H 2.614096 0.766381 1.372129
  H 1.235077 0.331226 0.167371
 20
 1.709404
  C -0.432360 1.973826 1.548258
  C -1.540604 1.242667 0.801650
  C -2.268833 2.198092 -0.162445
  C -1.034493 0.091291 -0.001583
  O 0.177694 -0.129005 -0.215257
  C -2.001448 -0.810813 -0.648836
  H -0.859392 2.797543 2.111938
  H 0.296815 2.382809 0.853378
  H 0.054076 1.306897 2.246016
  H -2.274010 0.859448 1.518992
  H -1.582070 2.571473 -0.915753
  H -2.649169 3.044872 0.400803
  H -3.102796 1.715331 -0.656546
  H -3.023787 -0.619535 -0.342561
  H -1.732336 -1.840223 -0.432232
  H -1.918181 -0.704316 -1.730106
  O 2.409481 0.722942 0.490788
  H 3.039501 0.038320 0.253875
  H 2.491366 0.907820 1.434548
  H 1.072131 0.322789 0.144639
 20
 0.496823
  C -0.365115 1.910530 1.531862
  C -1.500941 1.215776 0.792893
  C -2.215623 2.201166 -0.152628
  C -1.059883 0.058315 -0.026798
  O 0.143396 -0.218118 -0.275069
  C -2.071072 -0.804820 -0.648542
  H -0.765428 2.735338 2.116851
  H 0.365214 2.320962 0.836082
  H 0.118955 1.223069 2.218215
  H -2.237930 0.850771 1.519221
  H -1.529419 2.557911 -0.916018
  H -2.556098 3.056012 0.425781
  H -3.078710 1.749764 -0.636114
  H -3.077485 -0.592113 -0.306011
  H -1.822433 -1.845662 -0.460290
  H -2.020486 -0.689227 -1.730738
  O 2.364240 0.831730 0.531445
  H 3.042680 0.190184 0.315074
  H 2.431780 1.029081 1.474254
  H 0.913204 0.309922 0.116928
 20
 1.598349
  C -0.366056 1.886288 1.544447
  C -1.515082 1.215005 0.791486
  C -2.209918 2.222361 -0.147668
  C -1.096119 0.055364 -0.035438
  O 0.105894 -0.234027 -0.286449
  C -2.116126 -0.799097 -0.641081
  H -0.759062 2.713806 2.134471
  H 0.375389 2.291500 0.856372
  H 0.103259 1.183910 2.229256
  H -2.258606 0.862947 1.508254
  H -1.514850 2.576327 -0.903609
  H -2.538077 3.075614 0.438043
  H -3.075644 1.791525 -0.637396
  H -3.119852 -0.576208 -0.291255
  H -1.872297 -1.844835 -0.455259
  H -2.072478 -0.691190 -1.725387
  O 2.446885 0.849370 0.541754
  H 3.132771 0.233933 0.272287
  H 2.579140 1.027383 1.480404
  H 0.814936 0.297193 0.102930
 20
 4.384732
  C -0.358948 1.852353 1.541158
  C -1.536281 1.213226 0.795492
  C -2.215753 2.243993 -0.138219
  C -1.145479 0.048938 -0.035945
  O 0.057067 -0.250960 -0.290163
  C -2.174279 -0.789161 -0.641880
  H -0.725298 2.687095 2.136578
  H 0.386336 2.239479 0.846726
  H 0.097250 1.135234 2.216599
  H -2.285167 0.876469 1.518747
  H -1.521864 2.582433 -0.896686
  H -2.516964 3.100342 0.450885
  H -3.098122 1.833696 -0.622096
  H -3.176340 -0.558585 -0.285271
  H -1.937825 -1.839470 -0.469736
  H -2.134013 -0.675273 -1.725498
  O 2.571622 0.875918 0.565102
  H 3.256160 0.270679 0.276021
  H 2.747112 1.068706 1.493588
  H 0.725642 0.274452 0.092520
 20
 8.494304
  C -0.346624 1.836877 1.546986
  C -1.558143 1.208569 0.797200
  C -2.223401 2.254700 -0.133041
  C -1.194060 0.046227 -0.039850
  O 0.004682 -0.258891 -0.313312
  C -2.237030 -0.777903 -0.640712
  H -0.695535 2.675790 2.149587
  H 0.399244 2.212079 0.849346
  H 0.100400 1.111432 2.213858
  H -2.296832 0.883252 1.524700
  H -1.525891 2.580914 -0.896396
  H -2.504329 3.118242 0.462152
  H -3.110423 1.862959 -0.607938
  H -3.233086 -0.545596 -0.268939
  H -2.004849 -1.830684 -0.489232
  H -2.209403 -0.655226 -1.724679
  O 2.701474 0.898881 0.589919
  H 3.378320 0.297138 0.269437
  H 2.907418 1.072772 1.515196
  H 0.639000 0.257839 0.068860
 20
 12.067289
  C -0.335511 1.806056 1.524848
  C -1.580814 1.210090 0.790286
  C -2.229513 2.270915 -0.110830
  C -1.253565 0.045553 -0.057362
  O -0.061390 -0.272885 -0.352779
  C -2.321446 -0.764847 -0.637422
  H -0.661256 2.650163 2.123346
  H 0.406966 2.157154 0.816349
  H 0.092696 1.063486 2.192025
  H -2.320974 0.903044 1.532918
  H -1.539670 2.582095 -0.893766
  H -2.473219 3.138880 0.496221
  H -3.142645 1.904076 -0.565370
  H -3.302284 -0.527689 -0.243924
  H -2.091115 -1.822292 -0.500604
  H -2.314938 -0.641280 -1.724596
  O 2.888874 0.939212 0.638113
  H 3.556525 0.336627 0.305726
  H 3.101312 1.095379 1.562177
  H 0.556148 0.237271 0.025737
 20
 11.108664
  C -0.369894 1.757735 1.495066
  C -1.622289 1.206024 0.777437
  C -2.263981 2.296715 -0.094600
  C -1.344420 0.037017 -0.078034
  O -0.170584 -0.305435 -0.390525
  C -2.436415 -0.750731 -0.631535
  H -0.664344 2.613675 2.091148
  H 0.386558 2.084583 0.781036
  H 0.047261 1.000316 2.155795
  H -2.355108 0.931464 1.537634
  H -1.589036 2.600511 -0.880421
  H -2.472736 3.166845 0.529980
  H -3.191759 1.957640 -0.536104
  H -3.403581 -0.484318 -0.219982
  H -2.233842 -1.811260 -0.482829
  H -2.452013 -0.622645 -1.718794
  O 3.240888 0.991381 0.706311
  H 3.893739 0.382196 0.350618
  H 3.470343 1.104096 1.632890
  H 0.481527 0.208901 -0.036727
