 29
 0.000000
  C 0.987386 0.134465 0.385761
  C 2.463977 0.140317 0.399787
  C 3.234941 0.612156 1.574161
  C 2.446400 1.098999 2.786465
  C 3.388274 1.546407 3.900044
  C 3.087295 -0.323115 -0.754324
  C 4.463437 -0.411346 -0.974693
  C 5.128276 -0.865783 -2.107055
  C 4.621340 -1.386794 -3.405431
  C 3.129931 -1.500077 -3.688691
  H 2.972210 -1.898756 -4.682199
  O 6.450706 -0.865931 -2.107605
  H 0.542730 0.502753 1.302870
  H 0.622382 -0.878902 0.214550
  H 0.622018 0.747758 -0.438761
  H 3.892001 1.425773 1.246390
  H 3.892262 -0.201928 1.900207
  H 1.808663 0.299958 3.168963
  H 1.808452 1.940501 2.510037
  H 4.024166 0.726507 4.226818
  H 2.817563 1.891233 4.758806
  H 4.023920 2.364697 3.568801
  H 2.428781 -0.640620 -1.544588
  H 5.090773 -0.081973 -0.154458
  H 5.075571 -2.375806 -3.533371
  H 5.076042 -0.760946 -4.181616
  H 2.655227 -0.522518 -3.638101
  H 2.654741 -2.171193 -2.976426
  H 6.837404 -0.532847 -1.276247
 29
 12.668290
  C 0.934037 0.165654 0.459570
  C 2.441483 0.105993 0.312885
  C 3.261776 0.568201 1.465584
  C 2.525746 1.070568 2.715425
  C 3.537495 1.495860 3.778386
  C 2.845443 -0.366768 -0.864524
  C 4.195962 -0.384716 -0.909781
  C 5.029883 -0.811338 -1.973494
  C 4.681490 -1.352615 -3.319257
  C 3.231987 -1.520828 -3.734370
  H 3.210321 -1.925919 -4.742273
  O 6.332929 -0.750234 -1.827475
  H 0.596171 0.547065 1.409449
  H 0.529907 -0.837082 0.310477
  H 0.530930 0.787758 -0.341433
  H 3.914105 1.386794 1.136287
  H 3.913074 -0.251920 1.793117
  H 1.896244 0.283194 3.132024
  H 1.898170 1.928836 2.471874
  H 4.170617 0.661477 4.071505
  H 3.023036 1.853176 4.667194
  H 4.172732 2.299948 3.413965
  H 2.179460 -0.674650 -1.632460
  H 4.755962 -0.042630 -0.056393
  H 5.194280 -2.318085 -3.397962
  H 5.192798 -0.709422 -4.044561
  H 2.710322 -0.568387 -3.753823
  H 2.711815 -2.222607 -3.088940
  H 6.633102 -0.405574 -0.973952
 29
 45.634975
  C 0.899144 0.179946 0.493340
  C 2.490258 0.074953 0.234820
  C 3.303254 0.543252 1.401298
  C 2.580423 1.048463 2.663567
  C 3.616563 1.464572 3.700936
  C 2.704088 -0.407031 -0.967036
  C 4.051464 -0.375636 -0.887185
  C 4.969131 -0.779204 -1.893516
  C 4.713297 -1.324723 -3.248661
  C 3.284853 -1.522626 -3.738556
  H 3.320192 -1.929050 -4.747469
  O 6.267774 -0.686908 -1.668865
  H 0.609484 0.566912 1.457326
  H 0.480814 -0.820399 0.363747
  H 0.481841 0.813778 -0.292080
  H 3.947738 1.379564 1.084313
  H 3.950290 -0.277427 1.750689
  H 1.959223 0.266723 3.094701
  H 1.958274 1.910899 2.436811
  H 4.248641 0.627368 3.981183
  H 3.122505 1.824573 4.599770
  H 4.247806 2.264081 3.325088
  H 2.006689 -0.707955 -1.720547
  H 4.589816 -0.034056 -0.029729
  H 5.252642 -2.281758 -3.299720
  H 5.251701 -0.670022 -3.948914
  H 2.746533 -0.580269 -3.784964
  H 2.747027 -2.234289 -3.118505
  H 6.517168 -0.335389 -0.796785
 29
 88.709123
  C 0.891376 0.195227 0.532598
  C 2.575859 0.051117 0.179323
  C 3.340469 0.530125 1.376371
  C 2.601424 1.034294 2.621400
  C 3.631401 1.451880 3.668616
  C 2.633622 -0.438673 -1.035820
  C 3.983055 -0.367402 -0.867331
  C 4.940709 -0.764137 -1.861309
  C 4.723084 -1.311922 -3.222208
  C 3.305594 -1.525366 -3.745174
  H 3.368838 -1.931548 -4.754759
  O 6.230421 -0.657220 -1.603877
  H 0.637181 0.583759 1.500823
  H 0.483282 -0.801121 0.413818
  H 0.484881 0.834861 -0.241693
  H 3.985875 1.368002 1.080363
  H 3.977261 -0.284977 1.744107
  H 1.976125 0.253762 3.048780
  H 1.983496 1.897366 2.385013
  H 4.259480 0.614516 3.957501
  H 3.128835 1.814021 4.561296
  H 4.267180 2.250452 3.298491
  H 1.923423 -0.730051 -1.759490
  H 4.558549 -0.032405 -0.028054
  H 5.274375 -2.263839 -3.262134
  H 5.270943 -0.651071 -3.910963
  H 2.758170 -0.589609 -3.803954
  H 2.761481 -2.242930 -3.138577
  H 6.459516 -0.305913 -0.729189
 29
 127.632954
  C 0.818906 0.195775 0.543830
  C 2.747015 0.011410 0.149156
  C 3.404971 0.525012 1.405934
  C 2.600222 1.041003 2.607724
  C 3.579337 1.487283 3.688943
  C 2.639422 -0.495486 -1.045143
  C 4.060023 -0.386394 -0.873376
  C 4.944724 -0.767486 -1.866738
  C 4.701999 -1.309315 -3.244339
  C 3.281643 -1.493298 -3.757068
  H 3.333622 -1.888258 -4.770120
  O 6.270236 -0.705517 -1.650343
  H 0.610484 0.576680 1.519575
  H 0.489690 -0.827014 0.429312
  H 0.439943 0.845366 -0.233051
  H 4.042037 1.374283 1.126666
  H 4.036704 -0.276036 1.815997
  H 1.970960 0.261621 3.025643
  H 1.987931 1.893447 2.331636
  H 4.203783 0.661087 4.018833
  H 3.034622 1.859146 4.553810
  H 4.223137 2.287167 3.332116
  H 1.902686 -0.779594 -1.746792
  H 4.691553 -0.095734 -0.041038
  H 5.236602 -2.267686 -3.298107
  H 5.246920 -0.639265 -3.923832
  H 2.749646 -0.549699 -3.802228
  H 2.735600 -2.213119 -3.157467
  H 6.541670 -0.361388 -0.775300
 29
 137.824702
  C 0.586635 0.205816 0.588529
  C 2.979847 0.015013 0.160775
  C 3.509599 0.543409 1.421586
  C 2.603019 1.023035 2.564184
  C 3.489011 1.506304 3.713741
  C 2.714976 -0.470460 -0.982210
  C 4.248943 -0.405308 -0.883909
  C 5.030169 -0.808247 -1.910082
  C 4.699481 -1.333868 -3.282254
  C 3.249900 -1.463545 -3.722428
  H 3.237744 -1.841038 -4.742045
  O 6.383070 -0.777097 -1.795341
  H 0.388848 0.595334 1.562557
  H 0.356168 -0.835552 0.476612
  H 0.298143 0.848849 -0.214675
  H 4.150809 1.400049 1.188147
  H 4.132377 -0.236741 1.874022
  H 1.969143 0.219488 2.934726
  H 1.989367 1.864925 2.243029
  H 4.118528 0.702847 4.092600
  H 2.871719 1.859086 4.534358
  H 4.128066 2.328312 3.401687
  H 1.951296 -0.755822 -1.658514
  H 4.920996 -0.123686 -0.093543
  H 5.201920 -2.300236 -3.376775
  H 5.217521 -0.663717 -3.975251
  H 2.746644 -0.500575 -3.722238
  H 2.712473 -2.180135 -3.106184
  H 6.719248 -0.449772 -0.950564
 29
 127.055391
  C 0.182990 0.191592 0.608591
  C 3.365813 0.043337 0.289521
  C 3.834582 0.574234 1.531210
  C 2.689049 0.999082 2.462965
  C 3.257931 1.559222 3.764129
  C 2.963393 -0.441200 -0.784048
  C 4.574847 -0.435077 -0.886909
  C 5.159462 -0.863128 -2.023359
  C 4.622471 -1.335414 -3.352205
  C 3.128441 -1.388014 -3.628939
  H 2.988362 -1.733201 -4.650770
  O 6.507050 -0.912884 -2.087708
  H -0.094637 0.583643 1.554426
  H 0.150385 -0.868502 0.481304
  H 0.092576 0.819870 -0.248120
  H 4.462166 1.453973 1.343504
  H 4.423768 -0.186223 2.052211
  H 2.049739 0.145972 2.687292
  H 2.082613 1.764800 1.983558
  H 3.853028 0.813074 4.283887
  H 2.447211 1.862907 4.425076
  H 3.883317 2.431652 3.576294
  H 2.222839 -0.762821 -1.469042
  H 5.319978 -0.196619 -0.141200
  H 5.059767 -2.325318 -3.519556
  H 5.092504 -0.680739 -4.091654
  H 2.673785 -0.405349 -3.551455
  H 2.625969 -2.099614 -2.978748
  H 6.971533 -0.620280 -1.286664
 29
 108.291214
  C 0.038983 0.042124 0.405330
  C 3.596858 0.073167 0.586757
  C 3.964376 0.672663 1.788609
  C 2.657904 1.053665 2.558795
  C 3.019583 1.722776 3.874343
  C 3.496493 -0.499689 -0.552024
  C 4.890983 -0.629045 -1.026615
  C 5.268553 -1.036265 -2.254630
  C 4.487483 -1.323449 -3.506044
  C 2.967975 -1.218392 -3.509516
  H 2.619272 -1.401428 -4.524326
  O 6.580003 -1.199665 -2.517486
  H -0.396225 0.466985 1.284030
  H 0.175881 -1.016436 0.348638
  H 0.140296 0.639218 -0.474831
  H 4.525277 1.593486 1.610352
  H 4.541716 -0.006985 2.419956
  H 2.075238 0.151781 2.743599
  H 2.062402 1.729239 1.945464
  H 3.604505 1.059301 4.506410
  H 2.109185 1.983625 4.407692
  H 3.587795 2.634211 3.709101
  H 2.703794 -0.795962 -1.200852
  H 5.678099 -0.499587 -0.298004
  H 4.783517 -2.328838 -3.821496
  H 4.896256 -0.644952 -4.263382
  H 2.636263 -0.221408 -3.230908
  H 2.512488 -1.975324 -2.875651
  H 7.157699 -0.990252 -1.766779
