 13
 0.000000
  H 1.436051 0.130392 0.376920
  C 2.517962 0.131154 0.377972
  C 3.193259 0.608792 1.565367
  H 2.501052 0.918927 2.338020
  C 3.145971 -0.330351 -0.771169
  C 4.544795 -0.401128 -0.947577
  C 5.099307 -0.863463 -2.101089
  H 4.486305 -1.193120 -2.924336
  H 6.167193 -0.915443 -2.229732
  H 3.873248 1.433251 1.323175
  H 3.874213 -0.153287 1.960755
  H 2.519822 -0.659277 -1.591238
  H 5.187433 -0.078173 -0.140843
 13
 0.257827
  H 1.435378 0.021799 0.423264
  C 2.513811 0.092396 0.395304
  C 3.187626 0.672847 1.537258
  H 2.498382 0.976905 2.318347
  C 3.145626 -0.361444 -0.750446
  C 4.540507 -0.514189 -0.903850
  C 5.092912 -0.816411 -2.109202
  H 4.482818 -0.961071 -2.989742
  H 6.160216 -0.908695 -2.230508
  H 3.818133 1.517040 1.242685
  H 3.919254 -0.039350 1.942421
  H 2.535560 -0.660665 -1.593449
  H 5.185649 -0.390860 -0.045839
 13
 0.985733
  H 1.428415 -0.010700 0.447860
  C 2.508689 0.068726 0.402827
  C 3.192289 0.704751 1.510254
  H 2.510898 1.044843 2.283391
  C 3.136132 -0.410880 -0.736758
  C 4.529235 -0.582553 -0.886276
  C 5.096925 -0.765431 -2.109512
  H 4.505671 -0.752676 -3.010745
  H 6.165951 -0.890688 -2.222300
  H 3.819765 1.530631 1.173804
  H 3.925889 0.008554 1.938486
  H 2.510892 -0.744341 -1.558459
  H 5.162576 -0.576019 -0.006323
 13
 2.561041
  H 1.426509 -0.054425 0.484593
  C 2.501747 0.043472 0.409333
  C 3.201914 0.739846 1.470247
  H 2.534616 1.112127 2.240380
  C 3.116131 -0.457663 -0.722046
  C 4.509354 -0.666731 -0.873434
  C 5.104141 -0.696764 -2.093343
  H 4.548843 -0.493714 -2.996176
  H 6.159935 -0.880350 -2.197105
  H 3.824662 1.552463 1.080004
  H 3.944493 0.066007 1.914176
  H 2.488577 -0.842011 -1.518312
  H 5.118157 -0.805092 0.010027
 13
 4.665199
  H 1.426340 -0.110000 0.537145
  C 2.500848 0.004100 0.423717
  C 3.219645 0.779447 1.420808
  H 2.572941 1.175202 2.193842
  C 3.094056 -0.508942 -0.705462
  C 4.483108 -0.776440 -0.870386
  C 5.110643 -0.621158 -2.060945
  H 4.593381 -0.242971 -2.925925
  H 6.167153 -0.804856 -2.161357
  H 3.798665 1.585867 0.967426
  H 3.993998 0.143431 1.867627
  H 2.457969 -0.904664 -1.489878
  H 5.056318 -1.110220 -0.010698
 13
 7.089439
  H 1.431385 -0.122463 0.563257
  C 2.494627 -0.007526 0.420145
  C 3.239014 0.795777 1.373810
  H 2.600688 1.276751 2.108547
  C 3.070526 -0.591621 -0.685601
  C 4.465233 -0.819171 -0.880824
  C 5.107555 -0.529970 -2.031956
  H 4.608446 -0.022701 -2.842263
  H 6.161815 -0.727543 -2.150436
  H 3.879138 1.535975 0.886044
  H 3.962942 0.145745 1.880828
  H 2.431009 -1.077376 -1.418753
  H 5.027741 -1.252649 -0.060520
 13
 9.881362
  H 1.465812 -0.243270 0.678313
  C 2.508979 -0.071501 0.457375
  C 3.255396 0.837347 1.308082
  H 2.623948 1.349185 2.024940
  C 3.051005 -0.648988 -0.659452
  C 4.432704 -0.912679 -0.910820
  C 5.117655 -0.441965 -1.970620
  H 4.662612 0.221377 -2.682452
  H 6.169830 -0.656401 -2.096993
  H 3.842073 1.559671 0.732235
  H 4.020645 0.260590 1.840188
  H 2.385815 -1.111774 -1.394332
  H 4.946039 -1.536479 -0.183057
 13
 13.364846
  H 1.441692 -0.200742 0.658644
  C 2.500599 -0.069731 0.458291
  C 3.251367 0.830338 1.321876
  H 2.622719 1.322507 2.058727
  C 3.045346 -0.638438 -0.663201
  C 4.433616 -0.882002 -0.943417
  C 5.134581 -0.385571 -1.976004
  H 4.679693 0.255290 -2.712271
  H 6.148484 -0.696316 -2.161782
  H 3.808287 1.577255 0.754228
  H 4.026284 0.245116 1.829416
  H 2.437595 -1.272945 -1.310236
  H 4.954466 -1.473831 -0.186016
 13
 19.474946
  H 1.506061 -0.274219 0.675049
  C 2.542570 -0.056254 0.484488
  C 3.190270 0.930703 1.365097
  H 2.477354 1.401998 2.033022
  C 3.153003 -0.652565 -0.546451
  C 4.474499 -1.006374 -0.997830
  C 5.111111 -0.410848 -2.024726
  H 4.651190 0.380655 -2.593367
  H 6.088641 -0.737778 -2.333305
  H 3.728657 1.696515 0.814473
  H 3.942432 0.392204 1.956345
  H 2.638524 -1.267191 -1.297883
  H 4.985800 -1.775382 -0.420499
 13
 26.276355
  H 1.503814 -0.206521 0.583601
  C 2.567797 0.006680 0.439065
  C 3.163118 0.948334 1.441629
  H 2.398181 1.354837 2.094090
  C 3.218788 -0.606324 -0.513479
  C 4.506317 -1.000715 -1.036216
  C 5.085726 -0.452697 -2.124426
  H 4.587628 0.298408 -2.720100
  H 6.075697 -0.741195 -2.423832
  H 3.677336 1.769370 0.950690
  H 3.885523 0.400823 2.035604
  H 2.793680 -1.388718 -1.188287
  H 5.045484 -1.737485 -0.442376
 13
 31.554371
  H 1.528131 -0.188613 0.536943
  C 2.589022 0.001861 0.472520
  C 3.116011 0.970784 1.495561
  H 2.300287 1.446433 2.026965
  C 3.313201 -0.600994 -0.423313
  C 4.521165 -1.016109 -1.070917
  C 5.054435 -0.453211 -2.191485
  H 4.536962 0.322382 -2.742450
  H 6.004401 -0.785621 -2.572753
  H 3.723376 1.731818 1.014149
  H 3.739282 0.435230 2.209418
  H 3.001970 -1.435045 -1.148974
  H 5.109731 -1.755683 -0.530208
 13
 36.570518
  H 1.554536 -0.175634 0.483655
  C 2.619843 0.015791 0.488608
  C 3.082682 1.009105 1.515846
  H 2.237297 1.415439 2.058234
  C 3.398881 -0.590851 -0.349398
  C 4.505842 -1.072235 -1.087239
  C 5.039061 -0.453143 -2.201032
  H 4.572819 0.407252 -2.645147
  H 5.925530 -0.846281 -2.670584
  H 3.626177 1.820759 1.039432
  H 3.752992 0.522402 2.220027
  H 3.167093 -1.453591 -1.161844
  H 5.081438 -1.884386 -0.646387
 13
 40.209472
  H 1.601114 -0.126060 0.436713
  C 2.667797 0.064286 0.507955
  C 3.066086 1.023404 1.596217
  H 2.184637 1.442666 2.067277
  C 3.482979 -0.513153 -0.297340
  C 4.441673 -1.110896 -1.130356
  C 4.997229 -0.469733 -2.261609
  H 4.553029 0.417339 -2.676055
  H 5.879457 -0.866333 -2.726810
  H 3.673937 1.826463 1.188886
  H 3.654341 0.501774 2.346795
  H 3.335095 -1.502167 -1.358473
  H 5.018725 -1.931021 -0.704894
 13
 39.889849
  H 1.624514 -0.057723 0.361364
  C 2.690571 0.107694 0.496197
  C 3.036606 1.029821 1.634884
  H 2.135508 1.452418 2.063311
  C 3.529651 -0.466491 -0.279579
  C 4.412667 -1.131250 -1.149055
  C 4.992594 -0.484601 -2.284316
  H 4.560683 0.408934 -2.696714
  H 5.871726 -0.891971 -2.745149
  H 3.681883 1.831755 1.287649
  H 3.569499 0.475149 2.403186
  H 3.389048 -1.540340 -1.483189
  H 4.983319 -1.952892 -0.716556
 13
 36.527961
  H 1.660213 0.056749 0.282901
  C 2.724979 0.175286 0.488508
  C 3.011347 1.036151 1.688944
  H 2.130333 1.601390 1.969720
  C 3.549883 -0.442205 -0.263929
  C 4.372195 -1.136330 -1.164873
  C 4.888284 -0.471876 -2.341887
  H 4.531584 0.495073 -2.645066
  H 5.634635 -0.959517 -2.939368
  H 3.829496 1.718207 1.477289
  H 3.301066 0.399514 2.521928
  H 3.711665 -1.952709 -1.537006
  H 5.132589 -1.739232 -0.645126
