 9
 0.000000
  C 1.111809 0.034034 0.058299
  C 2.611205 0.048086 0.028600
  C 3.315774 0.537975 -0.974679
  H 4.388651 0.544517 -0.987981
  H 0.755287 -0.419934 0.981219
  H 0.713701 -0.542851 -0.775202
  H 0.712441 1.046694 0.007447
  H 3.115184 -0.372737 0.887867
  H 2.807556 0.955919 -1.830922
 9
 -0.340187
  C 1.111499 0.018896 0.058225
  C 2.608793 0.003441 0.010192
  C 3.310072 0.586046 -0.943355
  H 4.385004 0.568636 -0.979125
  H 0.747194 -0.234937 1.051437
  H 0.706514 -0.706016 -0.647829
  H 0.731904 1.002200 -0.217078
  H 3.109623 -0.527868 0.808424
  H 2.821294 1.121015 -1.745826
 9
 -0.593326
  C 1.113425 0.004808 0.040469
  C 2.609577 -0.054377 -0.010008
  C 3.308921 0.628693 -0.893861
  H 4.382793 0.630987 -0.976431
  H 0.756675 -0.028019 1.067977
  H 0.682425 -0.840977 -0.494918
  H 0.771528 0.930318 -0.424600
  H 3.098238 -0.683782 0.722791
  H 2.807379 1.241010 -1.629210
 9
 1.237273
  C 1.117723 -0.020443 0.015891
  C 2.608914 -0.111035 -0.034059
  C 3.284803 0.692233 -0.831380
  H 4.358632 0.761588 -0.879525
  H 0.783112 0.164641 1.036386
  H 0.636094 -0.925969 -0.343570
  H 0.860594 0.854855 -0.576885
  H 3.102516 -0.832114 0.601470
  H 2.785752 1.260309 -1.601547
 9
 10.267707
  C 1.124247 -0.069390 -0.019604
  C 2.615320 -0.152840 -0.047977
  C 3.252217 0.762446 -0.758217
  H 4.317023 0.949348 -0.726151
  H 0.816511 0.344316 0.945641
  H 0.593897 -0.997032 -0.187318
  H 0.917599 0.773393 -0.682384
  H 3.116474 -0.953587 0.471684
  H 2.796249 1.208858 -1.627218
 9
 30.363137
  C 1.129993 -0.078870 -0.015166
  C 2.625340 -0.164283 -0.001598
  C 3.189142 0.791348 -0.756886
  H 4.200257 1.162109 -0.594374
  H 0.781355 0.388423 0.911055
  H 0.609549 -1.003683 -0.201945
  H 1.059005 0.803513 -0.655855
  H 3.143529 -1.010639 0.409324
  H 2.831368 1.005169 -1.750995
 9
 57.154357
  C 1.167540 -0.146469 -0.028880
  C 2.629504 -0.256759 -0.059666
  C 3.098963 0.826524 -0.722983
  H 4.088487 1.242488 -0.529690
  H 0.776710 0.512000 0.762186
  H 0.530026 -1.019492 -0.080330
  H 1.262701 0.837115 -0.649283
  H 3.219693 -1.048757 0.378550
  H 2.827835 0.977347 -1.756940
 9
 79.811003
  C 1.183084 -0.188414 0.026498
  C 2.582534 -0.310764 -0.056741
  C 3.014767 0.844290 -0.735571
  H 3.964368 1.317729 -0.480808
  H 0.775051 0.533944 0.721173
  H 0.539038 -1.069230 -0.030162
  H 1.561972 1.033526 -0.689109
  H 3.194684 -1.115703 0.322656
  H 2.832441 0.911911 -1.799292
 9
 64.179941
  C 1.169615 -0.281978 0.046423
  C 2.528866 -0.359142 -0.080445
  C 2.939104 0.875985 -0.738570
  H 3.872319 1.342653 -0.446464
  H 0.780837 0.507024 0.673877
  H 0.484012 -1.129318 0.077830
  H 1.782614 1.193576 -0.737215
  H 3.176445 -1.119467 0.317221
  H 2.851213 0.910632 -1.823375
 9
 42.461199
  C 1.165643 -0.279650 0.112721
  C 2.498629 -0.335800 -0.095620
  C 2.939272 0.924407 -0.740325
  H 3.855938 1.386645 -0.414855
  H 0.722520 0.526035 0.671771
  H 0.558707 -1.173412 0.145565
  H 1.868419 1.279112 -0.767217
  H 3.143933 -1.158488 0.164037
  H 2.956766 0.824330 -1.835265
 9
 22.025840
  C 1.162428 -0.353706 0.129014
  C 2.463652 -0.332461 -0.135724
  C 2.933245 0.936341 -0.766659
  H 3.876485 1.328639 -0.419543
  H 0.660158 0.502475 0.552643
  H 0.578527 -1.255000 0.283025
  H 2.002287 1.515077 -0.704510
  H 3.150630 -1.129579 0.118666
  H 2.960150 0.820016 -1.855273
 9
 8.282253
  C 1.157037 -0.392420 0.178375
  C 2.437308 -0.307360 -0.144358
  C 2.926876 0.957789 -0.767492
  H 3.890773 1.318939 -0.423711
  H 0.598463 0.493095 0.452398
  H 0.630582 -1.310261 0.395521
  H 2.102577 1.664062 -0.704967
  H 3.140965 -1.114244 0.022972
  H 2.997874 0.768697 -1.842649
 9
 0.210062
  C 1.126035 -0.407847 0.205737
  C 2.383929 -0.281970 -0.171994
  C 2.928410 0.964666 -0.786080
  H 3.906538 1.226132 -0.392226
  H 0.470614 0.441363 0.305122
  H 0.743158 -1.339217 0.591065
  H 2.220772 1.776711 -0.639049
  H 3.071914 -1.112454 -0.083949
  H 3.031086 0.810913 -1.862539
 9
 -1.388055
  C 1.143408 -0.400530 0.277274
  C 2.362140 -0.292098 -0.215848
  C 2.918692 0.963662 -0.799939
  H 3.836777 1.247045 -0.287978
  H 0.469261 0.440671 0.295702
  H 0.768138 -1.321375 0.689368
  H 2.196389 1.772684 -0.715068
  H 3.028413 -1.144183 -0.225525
  H 3.159238 0.812420 -1.851898
