 31
 0.000000
  C 0.960312 0.147274 0.412556
  C 2.435458 0.140915 0.397554
  C 3.226415 0.607784 1.557695
  C 2.462121 1.095465 2.785041
  C 3.426220 1.536973 3.881839
  C 3.042697 -0.326378 -0.764092
  C 4.425438 -0.413235 -0.980757
  C 5.095338 -0.860007 -2.092981
  C 4.618439 -1.380705 -3.389264
  C 3.133274 -1.506327 -3.702807
  C 2.930294 -2.070573 -5.107488
  H 6.175187 -0.850089 -2.068543
  H 0.539026 0.526887 1.336213
  H 0.572323 -0.861176 0.256334
  H 0.585180 0.759812 -0.408494
  H 3.880683 1.419586 1.219924
  H 3.886696 -0.208946 1.870863
  H 1.828253 0.298308 3.177905
  H 1.822588 1.940174 2.522248
  H 4.064775 0.714071 4.195371
  H 2.872859 1.882443 4.751597
  H 4.059023 2.353245 3.540526
  H 2.379431 -0.643232 -1.551348
  H 5.047247 -0.082283 -0.157920
  H 5.083116 -2.367521 -3.510810
  H 5.083540 -0.752507 -4.159713
  H 2.652702 -0.528018 -3.655770
  H 2.652312 -2.180015 -2.992121
  H 3.375499 -1.421548 -5.858154
  H 1.868722 -2.157930 -5.325581
  H 3.375157 -3.058715 -5.200474
 31
 5.565461
  C 0.956151 0.220280 0.457110
  C 2.382102 0.156542 0.426017
  C 3.198760 0.616081 1.573886
  C 2.455513 1.094198 2.816980
  C 3.442646 1.533821 3.892524
  C 3.006235 -0.327630 -0.763025
  C 4.383339 -0.415052 -0.969297
  C 5.061480 -0.871361 -2.098924
  C 4.610791 -1.394375 -3.404905
  C 3.132834 -1.527590 -3.749485
  C 2.963849 -2.092185 -5.158268
  H 6.144783 -0.849896 -2.036666
  H 0.509038 0.573924 1.381757
  H 0.790136 -0.816136 0.290510
  H 0.523116 0.779944 -0.380657
  H 3.842724 1.430472 1.224489
  H 3.875309 -0.192280 1.870349
  H 1.835285 0.291173 3.219709
  H 1.807961 1.938326 2.572858
  H 4.091637 0.711790 4.186015
  H 2.910708 1.873191 4.777597
  H 4.064145 2.353786 3.539876
  H 2.344979 -0.642573 -1.546930
  H 5.013627 -0.085816 -0.150163
  H 5.088749 -2.376727 -3.522520
  H 5.094368 -0.769045 -4.168141
  H 2.647753 -0.550849 -3.711111
  H 2.642171 -2.204197 -3.048056
  H 3.423063 -1.440363 -5.898023
  H 1.908828 -2.186961 -5.403552
  H 3.417510 -3.077203 -5.241430
 31
 12.790991
  C 0.922603 0.271556 0.425856
  C 2.347057 0.177825 0.421574
  C 3.189849 0.618936 1.562879
  C 2.471176 1.083064 2.816189
  C 3.476616 1.520267 3.874865
  C 2.971824 -0.323605 -0.756103
  C 4.354527 -0.425533 -0.953632
  C 5.023084 -0.880611 -2.058927
  C 4.593934 -1.394150 -3.366823
  C 3.124288 -1.518740 -3.743146
  C 2.984798 -2.074235 -5.157270
  H 6.099716 -0.865766 -1.974138
  H 0.443142 0.631284 1.321992
  H 1.016724 -0.815808 0.357279
  H 0.445450 0.644212 -0.474672
  H 3.802200 1.448100 1.193706
  H 3.896431 -0.171801 1.840599
  H 1.867849 0.272422 3.222990
  H 1.817647 1.924240 2.589858
  H 4.136870 0.699763 4.148536
  H 2.961839 1.850344 4.773535
  H 4.086523 2.346298 3.514726
  H 2.312419 -0.636046 -1.553347
  H 4.987877 -0.101461 -0.141314
  H 5.071032 -2.376057 -3.481382
  H 5.098165 -0.773443 -4.118562
  H 2.644781 -0.539739 -3.709639
  H 2.617533 -2.197704 -3.056270
  H 3.464904 -1.420256 -5.881927
  H 1.936079 -2.163832 -5.428623
  H 3.437745 -3.060118 -5.235147
 31
 20.873744
  C 0.925499 0.313807 0.429548
  C 2.354712 0.170548 0.402990
  C 3.181756 0.607432 1.544568
  C 2.451056 1.074371 2.795451
  C 3.449418 1.504953 3.859588
  C 2.992432 -0.331313 -0.772478
  C 4.380170 -0.430366 -0.961908
  C 5.050848 -0.885580 -2.062447
  C 4.607710 -1.397405 -3.369374
  C 3.127990 -1.510430 -3.721264
  C 2.959745 -2.062045 -5.135796
  H 6.134231 -0.875954 -1.986027
  H 0.452601 0.690002 1.324419
  H 1.193185 -0.771592 0.457362
  H 0.411790 0.579324 -0.471942
  H 3.790422 1.436053 1.169684
  H 3.883443 -0.179775 1.829932
  H 1.841005 0.266286 3.199370
  H 1.805503 1.920965 2.566384
  H 4.102034 0.683311 4.136822
  H 2.930607 1.836630 4.752691
  H 4.064766 2.325373 3.504845
  H 2.355640 -0.643022 -1.576263
  H 5.006942 -0.103842 -0.145608
  H 5.077923 -2.386927 -3.492667
  H 5.106569 -0.776833 -4.131540
  H 2.656562 -0.527338 -3.677591
  H 2.628144 -2.187861 -3.027378
  H 3.432518 -1.410135 -5.867018
  H 1.905664 -2.143045 -5.389341
  H 3.404115 -3.050995 -5.223888
 31
 26.251350
  C 0.908927 0.349729 0.425144
  C 2.331261 0.173584 0.400976
  C 3.174602 0.609995 1.550704
  C 2.457532 1.077468 2.806337
  C 3.472544 1.491379 3.868029
  C 2.966000 -0.328564 -0.778255
  C 4.345778 -0.424387 -0.961417
  C 5.029018 -0.881724 -2.058984
  C 4.606451 -1.398370 -3.370115
  C 3.132522 -1.519422 -3.742950
  C 2.987236 -2.074944 -5.159761
  H 6.109378 -0.867175 -1.967802
  H 0.436610 0.745681 1.310434
  H 1.308609 -0.719155 0.557927
  H 0.368613 0.503991 -0.487917
  H 3.778563 1.438294 1.170699
  H 3.872712 -0.182115 1.829429
  H 1.840114 0.273808 3.212103
  H 1.819913 1.936491 2.586067
  H 4.119348 0.657068 4.137238
  H 2.964167 1.826140 4.768885
  H 4.097854 2.308683 3.511026
  H 2.314683 -0.639192 -1.585174
  H 4.969400 -0.095886 -0.142693
  H 5.078989 -2.381496 -3.483013
  H 5.108923 -0.778884 -4.122956
  H 2.655692 -0.536952 -3.707856
  H 2.626032 -2.199234 -3.053627
  H 3.468430 -1.421137 -5.885872
  H 1.936647 -2.161916 -5.429073
  H 3.438738 -3.062806 -5.239221
 31
 30.560235
  C 0.935672 0.375097 0.400446
  C 2.351324 0.170373 0.382336
  C 3.194543 0.606219 1.542359
  C 2.449789 1.069569 2.790217
  C 3.432921 1.468248 3.861823
  C 2.982798 -0.328835 -0.788235
  C 4.360195 -0.419671 -0.973231
  C 5.043722 -0.878136 -2.073951
  C 4.608109 -1.397770 -3.376983
  C 3.135178 -1.515528 -3.718295
  C 2.961975 -2.069384 -5.120053
  H 6.126536 -0.860040 -1.989551
  H 0.462281 0.788952 1.270021
  H 1.439871 -0.678796 0.605999
  H 0.385500 0.442374 -0.512284
  H 3.810349 1.442055 1.175573
  H 3.886362 -0.189377 1.825221
  H 1.825831 0.272805 3.177439
  H 1.825923 1.926539 2.564273
  H 4.065279 0.635586 4.136561
  H 2.910917 1.797769 4.747360
  H 4.063393 2.278134 3.524132
  H 2.336946 -0.636501 -1.578855
  H 4.982252 -0.087362 -0.159179
  H 5.074881 -2.377224 -3.494417
  H 5.095754 -0.782653 -4.136157
  H 2.664452 -0.536876 -3.675373
  H 2.644132 -2.188931 -3.020677
  H 3.428115 -1.421213 -5.852833
  H 1.911370 -2.154032 -5.366938
  H 3.407702 -3.053436 -5.205508
 31
 33.394439
  C 0.939588 0.396807 0.385577
  C 2.349002 0.166624 0.395291
  C 3.195144 0.607210 1.552738
  C 2.445157 1.075283 2.798662
  C 3.436541 1.472306 3.893797
  C 2.989376 -0.336921 -0.790923
  C 4.368650 -0.421064 -0.971438
  C 5.055580 -0.874091 -2.070209
  C 4.619215 -1.398329 -3.386060
  C 3.131007 -1.521281 -3.727989
  C 2.951591 -2.079896 -5.147025
  H 6.134367 -0.850368 -1.983648
  H 0.450044 0.837241 1.230678
  H 1.518220 -0.656259 0.666067
  H 0.381948 0.370305 -0.540594
  H 3.809888 1.433302 1.191382
  H 3.879195 -0.191216 1.836860
  H 1.808653 0.279835 3.182348
  H 1.827456 1.938449 2.567264
  H 4.068605 0.625191 4.176813
  H 2.902937 1.810657 4.789086
  H 4.084321 2.287587 3.557648
  H 2.333122 -0.649324 -1.593266
  H 4.988530 -0.085810 -0.154041
  H 5.094931 -2.389076 -3.505986
  H 5.108929 -0.771540 -4.153334
  H 2.654922 -0.537841 -3.680899
  H 2.641002 -2.200673 -3.025013
  H 3.417307 -1.424264 -5.886917
  H 1.890767 -2.167882 -5.393429
  H 3.403191 -3.070898 -5.237109
 31
 35.828430
  C 0.928823 0.415937 0.379617
  C 2.334927 0.159085 0.407846
  C 3.195571 0.605244 1.558038
  C 2.452998 1.079068 2.800549
  C 3.453221 1.468793 3.897922
  C 2.974166 -0.345940 -0.791515
  C 4.348955 -0.427973 -0.975879
  C 5.037631 -0.876968 -2.076641
  C 4.609969 -1.398085 -3.390079
  C 3.142227 -1.526394 -3.738590
  C 2.978644 -2.079709 -5.151473
  H 6.113900 -0.849745 -1.988941
  H 0.427097 0.879688 1.214541
  H 1.567612 -0.638877 0.713282
  H 0.374519 0.315335 -0.530549
  H 3.815741 1.429417 1.193702
  H 3.875268 -0.198918 1.840994
  H 1.803436 0.282553 3.187784
  H 1.834203 1.960126 2.563882
  H 4.077032 0.617449 4.181422
  H 2.929842 1.809878 4.785113
  H 4.107939 2.276387 3.561661
  H 2.313605 -0.654725 -1.583366
  H 4.967672 -0.095370 -0.162148
  H 5.079725 -2.365582 -3.507497
  H 5.089867 -0.780373 -4.138229
  H 2.662454 -0.547231 -3.693164
  H 2.652223 -2.208563 -3.041696
  H 3.444210 -1.423697 -5.881631
  H 1.927406 -2.172272 -5.404663
  H 3.433919 -3.062084 -5.239026
 31
 38.429575
  C 0.932233 0.427004 0.361749
  C 2.337428 0.143988 0.412256
  C 3.205148 0.605996 1.568656
  C 2.457827 1.082539 2.802629
  C 3.443270 1.469003 3.896699
  C 2.983288 -0.357458 -0.792018
  C 4.356675 -0.434371 -0.970701
  C 5.048762 -0.877633 -2.071832
  C 4.618835 -1.396089 -3.388561
  C 3.135377 -1.524954 -3.733928
  C 2.964061 -2.075722 -5.152290
  H 6.137304 -0.847410 -1.983343
  H 0.419163 0.901356 1.189702
  H 1.624475 -0.642945 0.736059
  H 0.376038 0.275122 -0.551255
  H 3.829818 1.435834 1.202324
  H 3.888563 -0.206368 1.861120
  H 1.809993 0.296360 3.183886
  H 1.849247 1.955187 2.562757
  H 4.057157 0.624009 4.182989
  H 2.917475 1.811812 4.775522
  H 4.095762 2.266462 3.565567
  H 2.323292 -0.667122 -1.584839
  H 4.974133 -0.101859 -0.151291
  H 5.097499 -2.379333 -3.512029
  H 5.104210 -0.764541 -4.148394
  H 2.654278 -0.543264 -3.683211
  H 2.647283 -2.211558 -3.034784
  H 3.427143 -1.415554 -5.884975
  H 1.908604 -2.168114 -5.401647
  H 3.420234 -3.060466 -5.245599
 31
 40.573259
  C 0.937895 0.441454 0.356994
  C 2.340334 0.126824 0.421976
  C 3.211394 0.601032 1.565234
  C 2.455809 1.087452 2.806149
  C 3.439736 1.480891 3.904108
  C 2.985731 -0.373914 -0.794324
  C 4.359353 -0.452921 -0.978098
  C 5.047691 -0.890843 -2.084602
  C 4.617844 -1.399341 -3.396844
  C 3.141134 -1.524861 -3.737310
  C 2.968921 -2.062980 -5.145790
  H 6.123807 -0.860988 -2.000278
  H 0.435002 0.909705 1.164801
  H 1.675569 -0.658979 0.763828
  H 0.375523 0.252791 -0.545274
  H 3.822311 1.412766 1.197600
  H 3.884141 -0.195454 1.856115
  H 1.800731 0.298177 3.193748
  H 1.848885 1.957814 2.562030
  H 4.057461 0.630131 4.197999
  H 2.900955 1.835136 4.796139
  H 4.099649 2.283281 3.566524
  H 2.331481 -0.675252 -1.568978
  H 4.985550 -0.121848 -0.152111
  H 5.097160 -2.385932 -3.526020
  H 5.102364 -0.760871 -4.155539
  H 2.663818 -0.552119 -3.681413
  H 2.657915 -2.209035 -3.048260
  H 3.429667 -1.400572 -5.872323
  H 1.914578 -2.153336 -5.392661
  H 3.423884 -3.044411 -5.244094
 31
 42.109128
  C 0.932984 0.458823 0.358357
  C 2.330748 0.109859 0.436260
  C 3.215579 0.601294 1.572722
  C 2.468158 1.097205 2.827413
  C 3.451179 1.488734 3.901762
  C 2.974228 -0.386555 -0.784675
  C 4.337833 -0.465081 -0.967466
  C 5.031554 -0.895824 -2.074672
  C 4.615623 -1.397813 -3.391099
  C 3.143807 -1.530607 -3.753250
  C 2.993140 -2.066041 -5.177560
  H 6.112117 -0.861912 -1.983182
  H 0.422558 0.937478 1.186171
  H 1.716484 -0.685235 0.793753
  H 0.370722 0.250041 -0.531723
  H 3.822797 1.409931 1.193968
  H 3.887703 -0.186711 1.859418
  H 1.815063 0.312388 3.227630
  H 1.863356 1.967298 2.589625
  H 4.062559 0.646349 4.189056
  H 2.927011 1.844221 4.787057
  H 4.101929 2.278444 3.556564
  H 2.306759 -0.691565 -1.570677
  H 4.955016 -0.140672 -0.147951
  H 5.100871 -2.378886 -3.519566
  H 5.104352 -0.754518 -4.138336
  H 2.657237 -0.555695 -3.698406
  H 2.652921 -2.225047 -3.071318
  H 3.461825 -1.394067 -5.897696
  H 1.938079 -2.161876 -5.440921
  H 3.457406 -3.048724 -5.275767
 31
 43.121706
  C 0.946777 0.464823 0.323273
  C 2.336173 0.087898 0.433086
  C 3.213768 0.599987 1.573843
  C 2.455867 1.091641 2.813766
  C 3.439064 1.499441 3.911707
  C 2.995282 -0.401577 -0.788211
  C 4.363985 -0.476739 -0.960265
  C 5.056964 -0.902988 -2.072681
  C 4.626313 -1.399838 -3.395469
  C 3.141174 -1.525029 -3.739877
  C 2.967942 -2.051301 -5.161360
  H 6.122824 -0.869900 -1.986378
  H 0.422426 0.941509 1.155390
  H 1.770550 -0.725541 0.796018
  H 0.399984 0.243984 -0.562366
  H 3.821491 1.423023 1.189734
  H 3.904938 -0.195630 1.876199
  H 1.815302 0.316644 3.201931
  H 1.848911 1.949738 2.569264
  H 4.067705 0.644753 4.215991
  H 2.905752 1.851758 4.785818
  H 4.099054 2.309427 3.565175
  H 2.338860 -0.706210 -1.577183
  H 4.984314 -0.151885 -0.128959
  H 5.107487 -2.380304 -3.535890
  H 5.110664 -0.755968 -4.146587
  H 2.659503 -0.548053 -3.672864
  H 2.655434 -2.221287 -3.053239
  H 3.425181 -1.383825 -5.879579
  H 1.922186 -2.139899 -5.407286
  H 3.421110 -3.026510 -5.270763
 31
 43.557994
  C 0.948432 0.489342 0.334031
  C 2.331583 0.079101 0.457290
  C 3.216905 0.604701 1.581704
  C 2.463087 1.090892 2.817395
  C 3.450198 1.504825 3.910857
  C 2.992608 -0.409279 -0.785924
  C 4.359592 -0.487526 -0.958167
  C 5.052527 -0.910579 -2.071072
  C 4.626625 -1.400849 -3.392850
  C 3.143413 -1.527014 -3.748647
  C 2.980148 -2.049741 -5.175833
  H 6.131996 -0.877161 -1.980917
  H 0.437510 0.952119 1.150006
  H 1.812353 -0.754659 0.829852
  H 0.385725 0.256680 -0.559867
  H 3.812045 1.432224 1.190116
  H 3.915041 -0.183206 1.884366
  H 1.819864 0.300213 3.210949
  H 1.840816 1.956276 2.568730
  H 4.073327 0.670444 4.207909
  H 2.921003 1.854439 4.785749
  H 4.093613 2.304101 3.567693
  H 2.326185 -0.711266 -1.574478
  H 4.983907 -0.167251 -0.121411
  H 5.106078 -2.371972 -3.532240
  H 5.112180 -0.759051 -4.133381
  H 2.659247 -0.549598 -3.681819
  H 2.652717 -2.226791 -3.067039
  H 3.447002 -1.371139 -5.896620
  H 1.921467 -2.139654 -5.432209
  H 3.440958 -3.036670 -5.286270
 31
 43.967281
  C 0.960420 0.503372 0.323376
  C 2.334994 0.060620 0.463573
  C 3.222473 0.606833 1.579985
  C 2.464819 1.087447 2.818677
  C 3.448998 1.512174 3.911109
  C 2.997107 -0.418312 -0.785154
  C 4.360342 -0.499786 -0.955455
  C 5.053630 -0.920647 -2.071055
  C 4.627178 -1.403668 -3.392711
  C 3.144925 -1.524960 -3.749720
  C 2.983332 -2.040028 -5.172859
  H 6.135041 -0.889299 -1.979611
  H 0.440157 0.972478 1.147804
  H 1.868511 -0.792439 0.838793
  H 0.394955 0.267579 -0.569001
  H 3.805720 1.444963 1.180018
  H 3.930319 -0.170173 1.884542
  H 1.827985 0.288128 3.213292
  H 1.835683 1.944392 2.570228
  H 4.081696 0.682064 4.208054
  H 2.910846 1.862203 4.797868
  H 4.087093 2.319807 3.564192
  H 2.325123 -0.717126 -1.574218
  H 4.980535 -0.189614 -0.121691
  H 5.107837 -2.380266 -3.536374
  H 5.117613 -0.758005 -4.133793
  H 2.662771 -0.547125 -3.680278
  H 2.652126 -2.225636 -3.072155
  H 3.449271 -1.364545 -5.885594
  H 1.932057 -2.126102 -5.429153
  H 3.438931 -3.020796 -5.285447
