 25
 0.000000
  C 0.943154 0.050965 0.295574
  C 2.425450 0.066404 0.054284
  C 3.250620 -0.000999 1.321236
  H 2.614526 -0.056125 2.203370
  C 3.012471 0.132552 -1.153347
  C 2.356763 0.201853 -2.519554
  C 0.842149 0.221463 -2.702741
  C 0.502534 0.297030 -4.189171
  C 4.471582 0.139065 -1.243762
  C 5.213423 0.197077 -2.349933
  H 6.292300 0.195156 -2.289038
  H 0.732238 -0.005049 1.360841
  H 0.474089 -0.807510 -0.176142
  H 0.470202 0.951623 -0.084515
  H 3.884693 0.879461 1.416513
  H 3.895181 -0.880338 1.321549
  H 2.739007 -0.652983 -3.088370
  H 2.749859 1.102359 -3.004177
  H 0.406795 1.086800 -2.205755
  H 0.393411 -0.681763 -2.292945
  H 0.918863 1.198855 -4.633478
  H -0.575522 0.311980 -4.333204
  H 0.906021 -0.562925 -4.719926
  H 5.005018 0.091405 -0.307388
  H 4.813666 0.247769 -3.349046
 25
 -0.079592
  C 0.953737 -0.112185 0.288549
  C 2.430498 0.045281 0.047221
  C 3.241815 0.120405 1.320079
  H 2.593228 0.328583 2.167400
  C 3.016166 0.114202 -1.163129
  C 2.359251 0.149050 -2.528765
  C 0.847041 0.268684 -2.698167
  C 0.497740 0.363508 -4.181278
  C 4.477642 0.119823 -1.252805
  C 5.221980 0.205591 -2.352006
  H 6.296937 0.169395 -2.287266
  H 0.754645 -0.224545 1.351481
  H 0.568559 -0.996663 -0.213165
  H 0.393153 0.750597 -0.062553
  H 3.984700 0.912936 1.271093
  H 3.754035 -0.821974 1.517072
  H 2.687378 -0.747650 -3.066461
  H 2.798231 1.007002 -3.048383
  H 0.482248 1.165534 -2.197048
  H 0.338341 -0.598275 -2.280385
  H 0.970320 1.233165 -4.633754
  H -0.578263 0.451429 -4.314784
  H 0.836824 -0.523834 -4.712254
  H 5.006845 0.004798 -0.319211
  H 4.825312 0.312370 -3.346064
 25
 0.076505
  C 0.974866 -0.266226 0.278660
  C 2.431086 0.016869 0.034312
  C 3.210134 0.238764 1.306984
  H 2.561021 0.705253 2.046604
  C 3.023895 0.098080 -1.172166
  C 2.365272 0.108892 -2.537399
  C 0.858484 0.306407 -2.682735
  C 0.487805 0.431278 -4.158179
  C 4.485568 0.088314 -1.259249
  C 5.236176 0.206465 -2.351324
  H 6.308583 0.124719 -2.287557
  H 0.802154 -0.421707 1.341307
  H 0.663387 -1.167049 -0.245095
  H 0.337039 0.553823 -0.042982
  H 4.044822 0.911442 1.138726
  H 3.575551 -0.698472 1.726749
  H 2.643892 -0.816464 -3.053737
  H 2.836027 0.931359 -3.083861
  H 0.552691 1.216894 -2.165599
  H 0.311900 -0.535044 -2.261681
  H 0.996003 1.279078 -4.613515
  H -0.584472 0.575027 -4.271469
  H 0.771653 -0.468137 -4.701008
  H 5.007906 -0.099527 -0.332740
  H 4.846808 0.384053 -3.338134
 25
 0.938658
  C 1.005606 -0.422720 0.271132
  C 2.426730 -0.005984 0.020524
  C 3.164046 0.359521 1.280573
  H 2.541381 1.050028 1.851581
  C 3.032021 0.079287 -1.179584
  C 2.368555 0.064348 -2.541920
  C 0.873047 0.348381 -2.659887
  C 0.479897 0.504113 -4.126293
  C 4.493326 0.057242 -1.261763
  C 5.251921 0.200287 -2.345663
  H 6.320467 0.078046 -2.283692
  H 0.873137 -0.629027 1.331291
  H 0.768281 -1.327600 -0.283615
  H 0.287977 0.347354 -0.005843
  H 4.077789 0.887997 1.033188
  H 3.369982 -0.503749 1.911367
  H 2.588070 -0.890074 -3.032915
  H 2.872953 0.842881 -3.119936
  H 0.633334 1.271076 -2.128299
  H 0.286295 -0.461571 -2.231491
  H 1.024415 1.325894 -4.587317
  H -0.584958 0.707009 -4.216795
  H 0.703134 -0.405832 -4.679752
  H 5.006516 -0.186465 -0.342246
  H 4.871876 0.434152 -3.324386
 25
 4.307104
  C 1.070189 -0.638280 0.248499
  C 2.410748 -0.013497 0.002612
  C 3.088818 0.514025 1.235964
  H 2.505500 1.370578 1.585360
  C 3.040871 0.090309 -1.185459
  C 2.369761 0.051919 -2.543089
  C 0.895835 0.441769 -2.626011
  C 0.463921 0.591615 -4.081624
  C 4.497467 0.023588 -1.252118
  C 5.270997 0.122737 -2.333153
  H 6.330354 -0.059909 -2.264666
  H 0.993983 -0.906723 1.300098
  H 0.957647 -1.538895 -0.350744
  H 0.237806 0.028875 0.023792
  H 4.051999 0.917774 0.945905
  H 3.152678 -0.202072 2.050566
  H 2.508253 -0.932755 -3.002769
  H 2.914561 0.771275 -3.158482
  H 0.743521 1.390309 -2.106174
  H 0.266390 -0.310698 -2.155858
  H 1.042253 1.368101 -4.578578
  H -0.588877 0.858374 -4.142642
  H 0.612321 -0.341790 -4.620903
  H 4.992518 -0.226194 -0.323340
  H 4.906966 0.361435 -3.316867
 25
 14.466573
  C 1.169396 -0.869278 0.258773
  C 2.366629 -0.013866 -0.008414
  C 3.008656 0.674728 1.160877
  H 2.430178 1.583587 1.365151
  C 3.035434 0.134844 -1.185469
  C 2.376000 0.123112 -2.550680
  C 0.918474 0.571240 -2.607879
  C 0.444201 0.693164 -4.052181
  C 4.473996 -0.061652 -1.217963
  C 5.266592 -0.043450 -2.285895
  H 6.300644 -0.331282 -2.201606
  H 1.069400 -1.009352 1.332737
  H 1.299900 -1.838274 -0.219018
  H 0.229766 -0.446367 -0.098577
  H 3.926422 1.085502 0.746597
  H 3.082100 0.101092 2.077258
  H 2.462798 -0.865975 -3.014538
  H 2.951877 0.817242 -3.166485
  H 0.815263 1.536408 -2.106336
  H 0.279035 -0.144291 -2.094776
  H 1.036094 1.430072 -4.591699
  H -0.598799 0.999956 -4.088515
  H 0.538459 -0.261646 -4.565425
  H 4.928736 -0.319996 -0.270659
  H 4.931711 0.202804 -3.277432
 25
 32.558873
  C 1.279808 -1.063821 0.283086
  C 2.321593 -0.039701 -0.004722
  C 2.904694 0.835590 1.059030
  H 2.364464 1.789714 1.125617
  C 3.022042 0.167092 -1.174672
  C 2.390285 0.179400 -2.552098
  C 0.943778 0.664756 -2.586593
  C 0.444725 0.807501 -4.019855
  C 4.435105 -0.153781 -1.167637
  C 5.245321 -0.236905 -2.225209
  H 6.258167 -0.581798 -2.108456
  H 1.169558 -1.168444 1.359813
  H 1.579935 -2.017633 -0.146460
  H 0.295288 -0.819200 -0.123326
  H 3.723053 1.253969 0.431509
  H 3.021834 0.416204 2.048904
  H 2.445385 -0.812372 -3.016598
  H 2.989138 0.854735 -3.166638
  H 0.870067 1.626831 -2.073972
  H 0.299383 -0.040713 -2.062087
  H 1.043787 1.534050 -4.565343
  H -0.591250 1.138816 -4.034559
  H 0.507168 -0.145855 -4.540671
  H 4.846969 -0.405149 -0.198441
  H 4.939414 -0.012386 -3.230900
 25
 57.584809
  C 1.343209 -1.171243 0.306203
  C 2.295828 -0.066440 0.015916
  C 2.801880 0.907682 0.985196
  H 2.374625 1.912812 0.930619
  C 3.021013 0.180199 -1.153554
  C 2.400998 0.204215 -2.538307
  C 0.962653 0.716097 -2.564280
  C 0.457695 0.876186 -3.993503
  C 4.424043 -0.201914 -1.129330
  C 5.234738 -0.337323 -2.181275
  H 6.240703 -0.696695 -2.051049
  H 1.200764 -1.253786 1.381556
  H 1.727230 -2.112875 -0.083345
  H 0.361265 -1.008410 -0.144777
  H 3.579864 1.283679 0.105521
  H 2.909686 0.601002 2.020494
  H 2.441247 -0.791286 -2.996726
  H 3.010073 0.867565 -3.156204
  H 0.912126 1.678724 -2.049614
  H 0.308666 0.023063 -2.034822
  H 1.069718 1.591546 -4.539359
  H -0.570708 1.230794 -4.000480
  H 0.495634 -0.075967 -4.518565
  H 4.817071 -0.440290 -0.148082
  H 4.938312 -0.124941 -3.192352
 25
 71.806024
  C 1.390709 -1.224534 0.310699
  C 2.289589 -0.068260 0.044488
  C 2.689871 0.911434 0.970323
  H 2.336321 1.927222 0.843851
  C 3.046662 0.215302 -1.149072
  C 2.408709 0.231135 -2.525383
  C 0.974246 0.754402 -2.535366
  C 0.448822 0.902534 -3.958672
  C 4.460256 -0.201365 -1.123399
  C 5.254868 -0.380618 -2.173675
  H 6.260606 -0.740551 -2.043027
  H 1.211409 -1.311449 1.380948
  H 1.824303 -2.153617 -0.059138
  H 0.425113 -1.095368 -0.179280
  H 3.517238 1.263267 -0.195429
  H 2.756115 0.664302 2.033441
  H 2.440217 -0.770827 -2.964654
  H 3.009647 0.883591 -3.164045
  H 0.941255 1.724434 -2.032307
  H 0.321753 0.074848 -1.987103
  H 1.059631 1.605255 -4.522056
  H -0.575893 1.267338 -3.953857
  H 0.469031 -0.055943 -4.473467
  H 4.852783 -0.415139 -0.135858
  H 4.950612 -0.192053 -3.187392
 25
 58.286059
  C 1.440613 -1.254554 0.308667
  C 2.282888 -0.050023 0.076121
  C 2.576662 0.912148 0.991300
  H 2.262159 1.926694 0.805079
  C 3.076404 0.249493 -1.145508
  C 2.418332 0.264671 -2.507164
  C 0.985257 0.785492 -2.499838
  C 0.444067 0.932813 -3.916300
  C 4.507533 -0.182304 -1.116221
  C 5.279372 -0.446183 -2.170641
  H 6.288071 -0.807293 -2.038618
  H 1.248477 -1.373687 1.373907
  H 1.909851 -2.162143 -0.074531
  H 0.479764 -1.137268 -0.196783
  H 3.463455 1.202879 -0.485626
  H 2.592216 0.719516 2.064542
  H 2.452435 -0.739462 -2.936122
  H 3.002888 0.919307 -3.159518
  H 0.956296 1.756263 -1.997437
  H 0.337361 0.106480 -1.944549
  H 1.051252 1.631077 -4.488905
  H -0.577981 1.304059 -3.900137
  H 0.452875 -0.027201 -4.428565
  H 4.915684 -0.312694 -0.120378
  H 4.945984 -0.335366 -3.190032
 25
 34.482725
  C 1.591878 -1.324086 0.275128
  C 2.315915 -0.036274 0.099681
  C 2.443061 0.931504 1.017351
  H 2.199811 1.952889 0.779203
  C 3.088281 0.333368 -1.150410
  C 2.408407 0.288006 -2.502545
  C 1.003329 0.885945 -2.489711
  C 0.411874 0.947551 -3.892626
  C 4.486669 -0.236053 -1.117491
  C 5.255204 -0.514312 -2.163489
  H 6.255595 -0.894349 -2.030714
  H 1.308295 -1.464646 1.316306
  H 2.186086 -2.178977 -0.051998
  H 0.685443 -1.300342 -0.327225
  H 3.419932 1.298595 -0.656512
  H 2.325188 0.759396 2.085924
  H 2.373612 -0.744998 -2.854544
  H 3.011241 0.856251 -3.214531
  H 1.045267 1.891977 -2.066658
  H 0.348120 0.288667 -1.854342
  H 1.020408 1.578278 -4.537171
  H -0.595826 1.355922 -3.866894
  H 0.367603 -0.047326 -4.331856
  H 4.853799 -0.446735 -0.119775
  H 4.951483 -0.337796 -3.180742
 25
 17.685309
  C 1.743171 -1.357591 0.232354
  C 2.326400 0.007194 0.084694
  C 2.305322 0.943375 1.022729
  H 2.177490 1.986913 0.790064
  C 3.108201 0.385581 -1.161934
  C 2.415369 0.341033 -2.510743
  C 0.996682 0.904540 -2.467667
  C 0.387562 0.989778 -3.861692
  C 4.486399 -0.218015 -1.112085
  C 5.190669 -0.638244 -2.128449
  H 6.166650 -1.071009 -1.988353
  H 1.456526 -1.548737 1.264411
  H 2.433179 -2.134290 -0.097607
  H 0.849796 -1.419609 -0.387889
  H 3.384993 1.395172 -0.788780
  H 2.093770 0.733901 2.064744
  H 2.401327 -0.686940 -2.879995
  H 2.996479 0.935452 -3.219776
  H 1.021191 1.899827 -2.018141
  H 0.364209 0.275544 -1.839000
  H 0.987194 1.632097 -4.503110
  H -0.621038 1.394080 -3.816199
  H 0.339870 0.002536 -4.317392
  H 4.890843 -0.301321 -0.111647
  H 4.847689 -0.571825 -3.145466
 25
 5.984549
  C 1.841873 -1.357598 0.144761
  C 2.339635 0.049856 0.076172
  C 2.202302 0.927892 1.055112
  H 2.231875 1.991421 0.884704
  C 3.122756 0.473130 -1.149087
  C 2.410920 0.356026 -2.490511
  C 1.002901 0.947091 -2.457392
  C 0.365223 0.945620 -3.841808
  C 4.473911 -0.193363 -1.090365
  C 5.159047 -0.668219 -2.102262
  H 6.135259 -1.100421 -1.961883
  H 1.602465 -1.637966 1.168061
  H 2.569997 -2.060078 -0.258562
  H 0.934571 -1.438381 -0.452778
  H 3.366386 1.516296 -0.890140
  H 1.883607 0.660523 2.051914
  H 2.367389 -0.693879 -2.787559
  H 2.991155 0.895054 -3.242750
  H 1.055682 1.972086 -2.083084
  H 0.372630 0.379297 -1.771030
  H 0.947998 1.551089 -4.532892
  H -0.643806 1.349533 -3.800029
  H 0.312894 -0.067161 -4.236258
  H 4.879688 -0.263216 -0.088963
  H 4.797178 -0.644485 -3.115008
 25
 0.656108
  C 1.848593 -1.327990 0.078999
  C 2.362194 0.078795 0.086307
  C 2.209020 0.887824 1.122447
  H 2.431160 1.940479 1.075238
  C 3.127142 0.531739 -1.136670
  C 2.396921 0.348586 -2.466892
  C 0.996093 0.958342 -2.457441
  C 0.360487 0.914357 -3.842233
  C 4.481662 -0.130668 -1.083976
  C 5.134487 -0.687584 -2.086530
  H 6.109242 -1.123999 -1.944551
  H 1.509589 -1.621601 1.069621
  H 2.620578 -2.021785 -0.253056
  H 1.008844 -1.412263 -0.608319
  H 3.328473 1.601381 -0.984253
  H 1.789131 0.540589 2.052989
  H 2.344152 -0.711874 -2.719607
  H 2.976742 0.849236 -3.246112
  H 1.060030 1.995238 -2.119192
  H 0.355231 0.425472 -1.753661
  H 0.962988 1.468888 -4.558652
  H -0.635129 1.351643 -3.821153
  H 0.276161 -0.113082 -4.190723
  H 4.926449 -0.120618 -0.096039
  H 4.743294 -0.730955 -3.088176
 25
 -1.155704
  C 2.026314 -1.396965 0.086034
  C 2.350933 0.066895 0.059856
  C 1.968782 0.891100 1.020855
  H 2.199922 1.943417 0.995993
  C 3.159982 0.546114 -1.126736
  C 2.399199 0.367968 -2.448494
  C 1.046436 1.079932 -2.435563
  C 0.338783 0.964854 -3.782609
  C 4.498685 -0.142277 -1.099507
  C 5.091289 -0.777964 -2.092654
  H 6.060470 -1.232102 -1.966697
  H 1.624378 -1.688086 1.055686
  H 2.919864 -1.986576 -0.122718
  H 1.285078 -1.635855 -0.676846
  H 3.351588 1.617956 -0.988076
  H 1.406122 0.547413 1.874782
  H 2.252468 -0.693149 -2.647929
  H 3.004778 0.781559 -3.259320
  H 1.197518 2.134049 -2.193558
  H 0.412631 0.652845 -1.653887
  H 0.940170 1.413931 -4.570847
  H -0.623794 1.471556 -3.755092
  H 0.168580 -0.080286 -4.037025
  H 4.992612 -0.078736 -0.137315
  H 4.650746 -0.877445 -3.069967
