22

C 0.977144 0.137904 0.38922
C 2.455153 0.134669 0.39543
C 3.235073 0.60607 1.567787
H 2.6871166460200824 0.9504553697173217 2.4198683055440773
C 3.079753 -0.327274 -0.754498
C 4.459209 -0.410139 -0.970559
C 5.123602 -0.861276 -2.101271
C 4.619671 -1.38385 -3.402879
C 3.12774 -1.503389 -3.692574
H 2.967397780044072 -1.8971173954585767 -4.6744947315813326
H 6.193597672794442 -0.858244683930686 -2.101003934357481
H 0.539378 0.515617 1.306392
H 0.595113 -0.871822 0.228729
H 0.612998 0.752915 -0.435109
H 3.892835 1.417529 1.23584
H 3.88994 -0.210799 1.892167
H 2.425188 -0.645747 -1.548096
H 5.082707 -0.08039 -0.147842
H 5.075338 -2.372473 -3.531358
H 5.071567 -0.755563 -4.179152
H 2.651282 -0.523546 -3.637461
H 2.65509 -2.176047 -2.975435
