 20
 0.000000
  H 1.417655 0.178866 0.496213
  C 2.487715 0.136603 0.390728
  H 3.103118 0.466368 1.211639
  C 3.036059 -0.328914 -0.768935
  C 4.419698 -0.410410 -0.972101
  C 5.111358 -0.865432 -2.106363
  C 4.606713 -1.384043 -3.398946
  C 3.119544 -1.505148 -3.701588
  C 2.921902 -2.069265 -5.106857
  O 6.418799 -0.855979 -2.082959
  H 2.372412 -0.644871 -1.555938
  H 5.035540 -0.077423 -0.142663
  H 5.071688 -2.369689 -3.528294
  H 5.072294 -0.761677 -4.173827
  H 2.639101 -0.527210 -3.655445
  H 2.638680 -2.179568 -2.992151
  H 3.368457 -1.420092 -5.856010
  H 1.861966 -2.158477 -5.329697
  H 3.368181 -3.056392 -5.199084
  H 6.825872 -0.525372 -1.257446
 20
 0.760072
  H 1.446060 0.124167 0.572655
  C 2.506723 0.095312 0.402208
  H 3.145439 0.273146 1.251745
  C 3.014198 -0.187770 -0.828594
  C 4.399883 -0.280886 -1.037561
  C 5.093517 -0.897410 -2.091610
  C 4.599416 -1.347495 -3.413221
  C 3.116992 -1.569657 -3.682071
  C 2.923908 -2.127472 -5.090323
  O 6.374341 -1.107265 -1.960348
  H 2.330394 -0.392203 -1.635020
  H 5.015041 0.083913 -0.220993
  H 5.157194 -2.257639 -3.660330
  H 4.969732 -0.603588 -4.132695
  H 2.565252 -0.631949 -3.613991
  H 2.708574 -2.281793 -2.964004
  H 3.298636 -1.435585 -5.840530
  H 1.868050 -2.294929 -5.286377
  H 3.441632 -3.075880 -5.210247
  H 6.785306 -0.774260 -1.137594
 20
 6.612909
  H 1.510518 -0.119512 0.620337
  C 2.562902 -0.054023 0.407496
  H 3.230349 -0.016281 1.252782
  C 3.019972 -0.089860 -0.862476
  C 4.397161 -0.021547 -1.184720
  C 5.063867 -0.873868 -2.077801
  C 4.603488 -1.420069 -3.376316
  C 3.116528 -1.574529 -3.674032
  C 2.920097 -2.099811 -5.093241
  O 6.305655 -1.188782 -1.831775
  H 2.303675 -0.213096 -1.662589
  H 5.016041 0.539215 -0.492000
  H 5.115090 -2.376823 -3.520021
  H 5.030598 -0.747095 -4.133071
  H 2.603113 -0.616996 -3.595241
  H 2.669490 -2.278409 -2.971398
  H 3.336476 -1.413526 -5.826180
  H 1.861275 -2.216873 -5.306913
  H 3.397529 -3.068097 -5.220818
  H 6.699437 -0.816820 -1.017174
 20
 18.890919
  H 1.608960 -0.291620 0.593088
  C 2.657040 -0.221101 0.350492
  H 3.347960 -0.403144 1.152919
  C 3.057514 -0.025888 -0.907172
  C 4.416205 0.214715 -1.333775
  C 4.996567 -0.851120 -2.035039
  C 4.594628 -1.443683 -3.335554
  C 3.105746 -1.569691 -3.667556
  C 2.926214 -2.108138 -5.083211
  O 6.193633 -1.242297 -1.686612
  H 2.298498 0.094175 -1.679484
  H 5.008459 0.849253 -0.688723
  H 5.081836 -2.413899 -3.414133
  H 5.061409 -0.797527 -4.087893
  H 2.613949 -0.598545 -3.605061
  H 2.629091 -2.254136 -2.965980
  H 3.351431 -1.430848 -5.815306
  H 1.872113 -2.227365 -5.310095
  H 3.404937 -3.075682 -5.195853
  H 6.583143 -0.827441 -0.892298
 20
 44.190715
  H 1.938140 -0.630855 0.649023
  C 2.941939 -0.448201 0.298384
  H 3.733694 -0.627934 1.001845
  C 3.164894 -0.076016 -0.967595
  C 4.402080 0.555413 -1.525135
  C 4.795398 -0.696516 -1.982815
  C 4.509944 -1.417707 -3.253877
  C 3.064515 -1.460612 -3.749219
  C 2.995489 -2.144001 -5.111863
  O 5.932053 -1.160344 -1.490531
  H 2.319859 -0.004098 -1.652352
  H 4.847508 1.323313 -0.912606
  H 4.900694 -2.429069 -3.142461
  H 5.119325 -0.902445 -4.003663
  H 2.666669 -0.447661 -3.846956
  H 2.448271 -2.019611 -3.044800
  H 3.575386 -1.600012 -5.849881
  H 1.964955 -2.189083 -5.460090
  H 3.376416 -3.157970 -5.057938
  H 6.212798 -0.823956 -0.625185
 20
 61.469580
  H 2.165558 -0.842047 0.647118
  C 3.136434 -0.587700 0.258291
  H 3.976836 -0.766235 0.909881
  C 3.271401 -0.128833 -1.005758
  C 4.440612 0.709784 -1.586645
  C 4.609470 -0.636926 -1.922534
  C 4.425433 -1.428957 -3.187833
  C 3.026218 -1.428621 -3.804093
  C 3.045284 -2.139454 -5.153867
  O 5.723937 -1.165977 -1.334767
  H 2.389690 0.031712 -1.622737
  H 4.723454 1.575381 -1.028937
  H 4.744354 -2.449444 -2.969059
  H 5.130281 -0.995318 -3.901940
  H 2.685068 -0.403037 -3.948661
  H 2.328366 -1.945716 -3.149575
  H 3.768201 -1.681353 -5.821035
  H 2.068263 -2.082034 -5.624928
  H 3.306597 -3.191939 -5.037692
  H 5.950057 -0.806428 -0.457874
 20
 85.538623
  H 2.264966 -0.806173 0.780710
  C 3.224582 -0.646477 0.316533
  H 4.088646 -0.983058 0.866308
  C 3.304629 -0.139977 -0.945275
  C 4.557476 0.746363 -1.443581
  C 4.432639 -0.539773 -1.968141
  C 4.369982 -1.367657 -3.218809
  C 3.009547 -1.361953 -3.930048
  C 3.070086 -2.214970 -5.193880
  O 5.663038 -1.128592 -1.392295
  H 2.408604 0.141713 -1.491115
  H 4.705800 1.625961 -0.866397
  H 4.645694 -2.384190 -2.945811
  H 5.136325 -0.964089 -3.881492
  H 2.732600 -0.339907 -4.202426
  H 2.245636 -1.768350 -3.268404
  H 3.787304 -1.808552 -5.902499
  H 2.098613 -2.242759 -5.676994
  H 3.360829 -3.238087 -4.958769
  H 5.810590 -0.953775 -0.448169
 20
 109.944890
  H 2.229169 -0.827829 0.757804
  C 3.164901 -0.719391 0.228895
  H 4.052787 -1.077474 0.726076
  C 3.210751 -0.150973 -0.990765
  C 4.624768 0.646411 -1.430070
  C 4.348342 -0.456868 -2.055772
  C 4.306198 -1.329623 -3.214537
  C 2.938585 -1.343948 -3.919975
  C 3.008821 -2.209544 -5.173723
  O 6.068111 -1.039918 -1.332803
  H 2.317579 0.207661 -1.491725
  H 4.858813 1.463412 -0.788012
  H 4.559345 -2.341358 -2.898300
  H 5.086425 -0.990771 -3.896066
  H 2.657171 -0.327277 -4.203480
  H 2.178538 -1.749982 -3.250236
  H 3.750810 -1.828090 -5.868383
  H 2.047898 -2.216138 -5.678424
  H 3.265673 -3.234979 -4.925846
  H 6.241875 -0.861464 -0.399681
 20
 107.504712
  H 2.191923 -0.861301 0.635295
  C 3.144767 -0.792462 0.129751
  H 4.006792 -1.187173 0.648589
  C 3.242890 -0.233594 -1.084255
  C 4.832638 0.472931 -1.435159
  C 4.390674 -0.545972 -2.098944
  C 4.256713 -1.390044 -3.252513
  C 2.869739 -1.314390 -3.924763
  C 2.853740 -2.181740 -5.175681
  O 6.316460 -0.683800 -1.012423
  H 2.380054 0.173909 -1.601197
  H 5.119845 1.239506 -0.737498
  H 4.438093 -2.428138 -2.950622
  H 5.044169 -1.110134 -3.956839
  H 2.656329 -0.282297 -4.202932
  H 2.100632 -1.663607 -3.236173
  H 3.603868 -1.852501 -5.890415
  H 1.880919 -2.121280 -5.656484
  H 3.045792 -3.223740 -4.932373
  H 6.538235 -0.418865 -0.111191
 20
 72.783656
  H 1.975180 -0.769889 0.496765
  C 2.948518 -0.804215 0.051641
  H 3.731715 -1.272966 0.632945
  C 3.168218 -0.294314 -1.150833
  C 5.111612 0.379404 -1.403234
  C 4.384211 -0.620573 -1.983617
  C 4.245582 -1.473481 -3.138450
  C 2.902284 -1.307560 -3.880188
  C 2.891852 -2.177741 -5.131375
  O 6.292336 -0.448731 -1.031943
  H 2.369871 0.184742 -1.709512
  H 5.317021 1.085760 -0.623684
  H 4.324580 -2.514730 -2.817554
  H 5.079075 -1.269963 -3.818411
  H 2.783203 -0.263601 -4.170861
  H 2.075088 -1.593351 -3.229200
  H 3.694066 -1.897573 -5.813630
  H 1.945325 -2.060988 -5.655409
  H 3.008421 -3.232924 -4.877571
  H 6.683481 -0.127652 -0.207010
 20
 29.932779
  H 1.904417 -0.691156 0.600756
  C 2.870940 -0.763381 0.134911
  H 3.672982 -1.136038 0.755291
  C 3.067425 -0.323856 -1.101680
  C 5.322491 0.229078 -1.446841
  C 4.274109 -0.567841 -1.899700
  C 4.170516 -1.426915 -3.069615
  C 2.864505 -1.292415 -3.872324
  C 2.922371 -2.159097 -5.125369
  O 6.432282 -0.496346 -1.316500
  H 2.234666 0.081579 -1.673412
  H 5.305214 0.983641 -0.670249
  H 4.233608 -2.468021 -2.730738
  H 5.036126 -1.251336 -3.720092
  H 2.719707 -0.255834 -4.152578
  H 2.024266 -1.609492 -3.268835
  H 3.753447 -1.875835 -5.757323
  H 2.008871 -2.038831 -5.698445
  H 3.025445 -3.216677 -4.870191
  H 7.077317 -0.200916 -0.652189
 20
 8.925466
  H 1.812006 -0.572444 0.694775
  C 2.776358 -0.631498 0.225503
  H 3.586406 -1.009883 0.832613
  C 2.935818 -0.330970 -1.063377
  C 5.341020 0.026135 -1.362555
  C 4.156470 -0.573267 -1.805838
  C 4.138880 -1.401522 -3.024960
  C 2.887162 -1.285876 -3.898795
  C 3.016113 -2.150253 -5.144977
  O 6.489708 -0.464700 -1.707759
  H 2.086224 -0.013359 -1.649679
  H 5.294065 0.749828 -0.549898
  H 4.187656 -2.440420 -2.694565
  H 5.036316 -1.212074 -3.617133
  H 2.777455 -0.245769 -4.202163
  H 1.999976 -1.588074 -3.341921
  H 3.900649 -1.878541 -5.722491
  H 2.144759 -2.018342 -5.783448
  H 3.082950 -3.207438 -4.884306
  H 7.265885 -0.173770 -1.187599
 20
 2.919525
  H 1.798764 -0.304940 0.712478
  C 2.748202 -0.493197 0.243385
  H 3.541298 -0.841560 0.882596
  C 2.906470 -0.354866 -1.080923
  C 5.330296 -0.135078 -1.258409
  C 4.133808 -0.624807 -1.781908
  C 4.149605 -1.391799 -3.042779
  C 2.879194 -1.347078 -3.889295
  C 3.049791 -2.150147 -5.172535
  O 6.468574 -0.448782 -1.788435
  H 2.060833 -0.063089 -1.690017
  H 5.301298 0.492006 -0.372984
  H 4.314980 -2.442130 -2.760360
  H 5.022593 -1.112924 -3.639130
  H 2.663126 -0.307959 -4.148249
  H 2.031245 -1.743106 -3.330147
  H 3.872552 -1.763641 -5.768661
  H 2.145421 -2.096148 -5.773389
  H 3.244473 -3.197819 -4.956416
  H 7.262925 -0.122437 -1.322289
 20
 0.483313
  H 1.781098 -0.009077 0.664913
  C 2.745905 -0.238862 0.241240
  H 3.549182 -0.392691 0.939849
  C 2.892208 -0.385578 -1.089252
  C 5.339262 -0.313806 -1.185940
  C 4.118248 -0.688930 -1.757903
  C 4.152410 -1.366093 -3.072830
  C 2.849622 -1.446578 -3.857306
  C 3.070191 -2.115754 -5.209373
  O 6.454770 -0.564232 -1.792736
  H 2.017085 -0.297972 -1.718149
  H 5.342628 0.229694 -0.247510
  H 4.505667 -2.392677 -2.887381
  H 4.941664 -0.920807 -3.690961
  H 2.460021 -0.439445 -4.023210
  H 2.102608 -2.011556 -3.301691
  H 3.796575 -1.566523 -5.802953
  H 2.139765 -2.153228 -5.768597
  H 3.427081 -3.133764 -5.087520
  H 7.263365 -0.259251 -1.340980
 20
 0.495838
  H 1.761261 0.086830 0.631412
  C 2.738760 -0.102901 0.223455
  H 3.557625 -0.077063 0.920712
  C 2.884502 -0.411337 -1.084724
  C 5.356532 -0.380857 -1.163786
  C 4.117510 -0.647355 -1.761490
  C 4.165768 -1.269222 -3.108433
  C 2.850549 -1.478238 -3.844394
  C 3.090978 -2.126747 -5.204000
  O 6.440673 -0.746250 -1.769981
  H 1.994683 -0.495912 -1.691042
  H 5.430657 0.075652 -0.183260
  H 4.657803 -2.244713 -2.989260
  H 4.854630 -0.696434 -3.739613
  H 2.358152 -0.515696 -3.999335
  H 2.182875 -2.116957 -3.264423
  H 3.741247 -1.511055 -5.820705
  H 2.150602 -2.258402 -5.732603
  H 3.552509 -3.105142 -5.093081
  H 7.280583 -0.557061 -1.307262
