 12
 0.000000
  C 0.982083 0.144892 0.412824
  C 2.442129 0.140205 0.400251
  C 3.234675 0.596528 1.535190
  H 2.633173 0.932836 2.373312
  C 3.068632 -0.321209 -0.748118
  H 4.137925 -0.367312 -0.863453
  H 0.564973 0.517153 1.339184
  H 0.599507 -0.862443 0.221095
  H 0.598916 0.739176 -0.422542
  H 3.912504 1.397022 1.221221
  H 3.913163 -0.198226 1.861992
  H 2.440237 -0.647734 -1.559721
 12
 -0.066797
  C 0.986205 0.144151 0.413068
  C 2.448345 0.135686 0.385562
  C 3.236799 0.577135 1.528405
  H 2.622568 0.883279 2.371024
  C 3.079420 -0.313856 -0.763451
  H 4.147924 -0.409594 -0.841201
  H 0.578505 0.599003 1.306396
  H 0.599734 -0.878354 0.327916
  H 0.586524 0.643873 -0.473977
  H 3.905696 1.395196 1.237914
  H 3.944858 -0.206576 1.821782
  H 2.470041 -0.556301 -1.617393
 12
 -0.304789
  C 0.969782 0.167877 0.421638
  C 2.428861 0.147549 0.379680
  C 3.225506 0.551085 1.533299
  H 2.623471 0.818506 2.395184
  C 3.073925 -0.274606 -0.774302
  H 4.148345 -0.356530 -0.818886
  H 0.580489 0.712030 1.276688
  H 0.590713 -0.862974 0.472625
  H 0.551636 0.543005 -0.515631
  H 3.874587 1.391222 1.270824
  H 3.944444 -0.235649 1.790828
  H 2.520230 -0.530844 -1.661188
 12
 -0.258668
  C 0.972321 0.169189 0.416694
  C 2.429497 0.146809 0.374748
  C 3.219264 0.528713 1.537328
  H 2.612309 0.759957 2.406255
  C 3.079230 -0.251174 -0.785685
  H 4.151187 -0.367128 -0.820266
  H 0.587415 0.789424 1.219917
  H 0.598776 -0.846885 0.590805
  H 0.547321 0.449457 -0.544243
  H 3.851413 1.392785 1.301443
  H 3.954964 -0.251427 1.767652
  H 2.526080 -0.448612 -1.692721
 12
 -0.212973
  C 0.973435 0.165547 0.403653
  C 2.431828 0.146540 0.363194
  C 3.213821 0.494149 1.547767
  H 2.599032 0.688371 2.419483
  C 3.089616 -0.212969 -0.800894
  H 4.154635 -0.376643 -0.819327
  H 0.593564 0.873678 1.134146
  H 0.610986 -0.817839 0.744937
  H 0.533252 0.310773 -0.578025
  H 3.834109 1.373542 1.350457
  H 3.952949 -0.282651 1.752526
  H 2.549905 -0.335545 -1.727226
 12
 -0.227437
  C 0.972131 0.153124 0.394409
  C 2.430629 0.143167 0.351901
  C 3.200243 0.458043 1.554180
  H 2.574791 0.607459 2.426239
  C 3.101152 -0.164814 -0.818776
  H 4.164622 -0.345182 -0.828471
  H 0.604949 0.985548 0.997468
  H 0.614254 -0.734588 0.928705
  H 0.518868 0.145858 -0.593820
  H 3.802458 1.359363 1.398138
  H 3.953881 -0.313200 1.732421
  H 2.583448 -0.220452 -1.762705
 12
 -0.097495
  C 0.977103 0.127482 0.386101
  C 2.436018 0.131134 0.351924
  C 3.191002 0.413983 1.572815
  H 2.555728 0.493534 2.449315
  C 3.108797 -0.108694 -0.830940
  H 4.161449 -0.341595 -0.852401
  H 0.621241 1.082997 0.784179
  H 0.611079 -0.603200 1.112591
  H 0.526043 -0.066251 -0.581670
  H 3.754910 1.346977 1.466518
  H 3.972728 -0.336446 1.714370
  H 2.593830 -0.055505 -1.776950
 12
 0.299650
  C 0.985006 0.100430 0.383570
  C 2.448375 0.120354 0.368037
  C 3.191130 0.400811 1.595127
  H 2.554666 0.422046 2.473966
  C 3.100462 -0.072687 -0.831528
  H 4.136362 -0.363819 -0.899355
  H 0.654130 1.127779 0.573181
  H 0.590710 -0.492340 1.207475
  H 0.550838 -0.220259 -0.558876
  H 3.708954 1.362259 1.517321
  H 4.005716 -0.318218 1.711915
  H 2.550814 0.064161 -1.749535
