 19
 0.000000
  C -3.243517 -1.805801 -0.306887
  C -1.753403 -1.620458 -0.387161
  C -1.182772 -1.985482 -1.744764
  C -1.187327 -0.199051 -0.068393
  C -2.184702 0.889493 0.119222
  O -0.012206 -0.018422 -0.010303
  H -3.477193 -2.858463 -0.477213
  H -3.774088 -1.247959 -1.077159
  H -3.634985 -1.551492 0.675670
  H -1.283976 -2.236894 0.395212
  H -1.574488 -1.354288 -2.542685
  H -1.469860 -3.009936 -1.982705
  H -0.097602 -1.907295 -1.750394
  H -3.213715 0.555191 0.094206
  H -2.011207 1.622702 -0.670502
  H -1.967874 1.363923 1.077356
  O 3.346637 -0.193300 0.041829
  H 2.397761 -0.022409 -0.009319
  H 3.722956 0.130971 -0.786013
 19
 -0.492914
  C -3.206516 -1.810397 -0.277565
  C -1.722068 -1.620602 -0.393018
  C -1.168797 -1.949042 -1.765616
  C -1.148927 -0.182152 -0.069387
  C -2.159328 0.888950 0.098150
  O 0.026363 -0.019385 -0.006775
  H -3.423011 -2.875080 -0.412778
  H -3.759569 -1.292505 -1.059758
  H -3.584078 -1.545721 0.708593
  H -1.214513 -2.204983 0.388940
  H -1.600305 -1.323006 -2.548655
  H -1.448289 -2.975492 -2.012022
  H -0.085165 -1.856161 -1.795653
  H -3.184765 0.553166 0.062832
  H -1.974370 1.617803 -0.688302
  H -1.948970 1.380846 1.044782
  O 3.178886 -0.261669 0.058150
  H 2.236913 -0.053122 0.003514
  H 3.590672 0.081496 -0.742433
 19
 -0.677142
  C -3.110376 -1.839715 -0.243697
  C -1.644228 -1.569945 -0.386467
  C -1.099274 -1.856199 -1.763944
  C -1.147195 -0.098036 -0.070203
  C -2.213476 0.918928 0.075006
  O 0.019486 0.118271 0.003345
  H -3.263259 -2.916004 -0.348747
  H -3.703321 -1.376209 -1.027980
  H -3.487985 -1.576679 0.742015
  H -1.087030 -2.121151 0.386370
  H -1.579020 -1.252280 -2.534112
  H -1.328209 -2.896962 -2.012469
  H -0.020950 -1.707820 -1.811074
  H -3.220686 0.531072 0.029053
  H -2.054771 1.654908 -0.718340
  H -2.040007 1.432731 1.022617
  O 2.925163 -0.539240 0.015784
  H 2.044393 -0.142184 -0.027476
  H 3.425954 -0.198172 -0.732521
 19
 -1.317926
  C -2.954183 -1.866157 -0.205803
  C -1.522869 -1.454711 -0.364996
  C -0.956278 -1.707412 -1.742207
  C -1.173899 0.066863 -0.071351
  C -2.337139 0.971468 0.063841
  O -0.033084 0.398301 -0.003044
  H -2.996999 -2.954074 -0.284350
  H -3.593911 -1.484509 -0.996009
  H -3.353586 -1.618874 0.777787
  H -0.907576 -1.934873 0.410612
  H -1.479989 -1.153495 -2.517726
  H -1.099945 -2.766900 -1.981454
  H 0.103737 -1.476960 -1.787877
  H -3.301329 0.484598 0.011738
  H -2.246163 1.717369 -0.727602
  H -2.222937 1.501163 1.011051
  O 2.512906 -1.032990 -0.117175
  H 1.838953 -0.341052 -0.093741
  H 3.159633 -0.768435 -0.779094
 19
 -1.864830
  C -2.888003 -1.842131 -0.225527
  C -1.461021 -1.395064 -0.332205
  C -0.831165 -1.685974 -1.674687
  C -1.160354 0.126708 -0.052096
  C -2.353405 0.995639 0.093417
  O -0.033741 0.511518 0.002100
  H -2.905717 -2.935834 -0.297099
  H -3.502896 -1.479640 -1.047115
  H -3.331135 -1.595704 0.733978
  H -0.874266 -1.852604 0.480170
  H -1.253188 -1.084672 -2.481113
  H -1.036141 -2.726344 -1.935205
  H 0.246837 -1.530880 -1.644217
  H -3.299829 0.476655 0.060478
  H -2.300951 1.734053 -0.707012
  H -2.241549 1.542442 1.033449
  O 2.152499 -1.251238 -0.371713
  H 1.627793 -0.463182 -0.156223
  H 2.918491 -0.951317 -0.870568
 19
 -0.266186
  C -2.893278 -1.809606 -0.319353
  C -1.447712 -1.365449 -0.287448
  C -0.723538 -1.787779 -1.551459
  C -1.140565 0.119853 -0.016909
  C -2.311323 1.021724 0.183360
  O -0.013888 0.535646 -0.004633
  H -2.941933 -2.887944 -0.444444
  H -3.421245 -1.374638 -1.163563
  H -3.403703 -1.590168 0.613885
  H -0.983158 -1.862712 0.581572
  H -0.883805 -1.128196 -2.402003
  H -1.004690 -2.802229 -1.824019
  H 0.367165 -1.749816 -1.352239
  H -3.262186 0.511249 0.226909
  H -2.310005 1.735291 -0.642055
  H -2.137014 1.602316 1.092675
  O 1.946797 -1.210342 -0.584409
  H 1.437706 -0.419768 -0.300002
  H 2.642200 -0.930716 -1.188212
 19
 3.480535
  C -2.853757 -1.796429 -0.383136
  C -1.389056 -1.358172 -0.278032
  C -0.669067 -1.841884 -1.506312
  C -1.129920 0.120075 -0.009585
  C -2.257454 1.047331 0.257744
  O 0.013757 0.561317 -0.022268
  H -2.909649 -2.873964 -0.511920
  H -3.341150 -1.323321 -1.233484
  H -3.384216 -1.554743 0.533772
  H -0.971730 -1.880455 0.590918
  H -0.782762 -1.211602 -2.394671
  H -0.830974 -2.892554 -1.708365
  H 0.497983 -1.760332 -1.236022
  H -3.219837 0.563912 0.330874
  H -2.280902 1.784136 -0.552082
  H -2.049091 1.615424 1.163152
  O 1.667426 -1.214823 -0.680846
  H 1.166231 -0.377182 -0.350064
  H 2.296852 -0.995913 -1.381759
 19
 9.124452
  C -2.843888 -1.800061 -0.365127
  C -1.377389 -1.359515 -0.277310
  C -0.646644 -1.841911 -1.508137
  C -1.129087 0.106314 -0.020657
  C -2.238079 1.037818 0.259446
  O 0.028501 0.566891 -0.027022
  H -2.892322 -2.877210 -0.471657
  H -3.334888 -1.352583 -1.223009
  H -3.379951 -1.541302 0.545762
  H -0.938593 -1.874768 0.596772
  H -0.780588 -1.231218 -2.395544
  H -0.772773 -2.903563 -1.698259
  H 0.570057 -1.749867 -1.222424
  H -3.206888 0.571262 0.322153
  H -2.249472 1.791183 -0.531672
  H -2.021360 1.593968 1.173094
  O 1.639565 -1.250276 -0.730592
  H 0.980561 -0.210815 -0.321026
  H 2.251408 -1.071349 -1.454154
 19
 10.330413
  C -2.829395 -1.810919 -0.360828
  C -1.367064 -1.355648 -0.276220
  C -0.613233 -1.830091 -1.493901
  C -1.140818 0.098360 -0.036281
  C -2.230367 1.027518 0.258090
  O 0.015165 0.581490 -0.068259
  H -2.863438 -2.881230 -0.466216
  H -3.328711 -1.369589 -1.225175
  H -3.369704 -1.561377 0.540393
  H -0.922920 -1.850571 0.608058
  H -0.728402 -1.212586 -2.386969
  H -0.728220 -2.878634 -1.688181
  H 0.642855 -1.731325 -1.181592
  H -3.192514 0.563226 0.323589
  H -2.243862 1.792514 -0.522031
  H -2.001347 1.580311 1.176263
  O 1.626964 -1.300565 -0.741096
  H 0.805186 -0.065542 -0.294844
  H 2.219091 -1.202136 -1.489321
 19
 12.072190
  C -2.815430 -1.817406 -0.360540
  C -1.358196 -1.335826 -0.265273
  C -0.586402 -1.807106 -1.474857
  C -1.166213 0.126269 -0.024609
  C -2.274086 1.035858 0.257166
  O -0.014454 0.644592 -0.051907
  H -2.831473 -2.899371 -0.454780
  H -3.309252 -1.395480 -1.233854
  H -3.370939 -1.564250 0.534512
  H -0.917789 -1.820724 0.621352
  H -0.682387 -1.178760 -2.351972
  H -0.721135 -2.858490 -1.690039
  H 0.680513 -1.753419 -1.159256
  H -3.237312 0.554709 0.314277
  H -2.293663 1.802712 -0.522432
  H -2.066320 1.595371 1.173556
  O 1.733036 -1.410480 -0.781512
  H 0.785756 0.040347 -0.265013
  H 2.300612 -1.368295 -1.555858
 19
 14.004689
  C -2.786988 -1.820402 -0.364416
  C -1.341078 -1.306406 -0.258940
  C -0.545287 -1.768372 -1.459821
  C -1.190757 0.154307 -0.021869
  C -2.318427 1.040267 0.269220
  O -0.054183 0.707294 -0.068328
  H -2.778960 -2.904245 -0.453911
  H -3.281485 -1.412906 -1.241340
  H -3.356169 -1.576678 0.526161
  H -0.903157 -1.776782 0.629764
  H -0.608475 -1.124769 -2.324133
  H -0.703327 -2.816325 -1.702356
  H 0.725932 -1.770395 -1.132878
  H -3.271662 0.537405 0.332291
  H -2.361238 1.810011 -0.507105
  H -2.119156 1.606635 1.183511
  O 1.806410 -1.546119 -0.824880
  H 0.746884 0.133328 -0.269080
  H 2.326429 -1.587480 -1.631569
 19
 15.444978
  C -2.765233 -1.819968 -0.358225
  C -1.331329 -1.277239 -0.246913
  C -0.522520 -1.717459 -1.442171
  C -1.218859 0.185585 -0.006839
  C -2.363356 1.038558 0.280337
  O -0.094496 0.769975 -0.056057
  H -2.733903 -2.902050 -0.448480
  H -3.265531 -1.423273 -1.237028
  H -3.342169 -1.588235 0.530894
  H -0.890058 -1.749497 0.648194
  H -0.576926 -1.063713 -2.304297
  H -0.688635 -2.755132 -1.698466
  H 0.778966 -1.761457 -1.116897
  H -3.305140 0.512236 0.344891
  H -2.421834 1.804607 -0.497185
  H -2.175816 1.611440 1.190773
  O 1.884332 -1.689548 -0.850026
  H 0.700881 0.228934 -0.270250
  H 2.339062 -1.805830 -1.687908
 19
 15.329191
  C -2.752184 -1.822897 -0.369251
  C -1.316296 -1.291245 -0.243599
  C -0.504672 -1.724700 -1.445846
  C -1.197771 0.169770 0.015527
  C -2.342703 1.025184 0.293606
  O -0.068002 0.742606 -0.003649
  H -2.728228 -2.903856 -0.473632
  H -3.246077 -1.410969 -1.243866
  H -3.331132 -1.600405 0.521167
  H -0.879640 -1.777012 0.645505
  H -0.585343 -1.077147 -2.310060
  H -0.655457 -2.768072 -1.691544
  H 0.738026 -1.735856 -1.137077
  H -3.287660 0.502896 0.337156
  H -2.385878 1.798957 -0.477773
  H -2.167581 1.587647 1.212708
  O 1.885297 -1.647266 -0.807202
  H 0.725194 0.193996 -0.213749
  H 2.384909 -1.689971 -1.625759
