10

H 3.586844039686866 -0.5981847778350238 -0.986277246060319
C 4.656668 -0.606995 -1.003571
C 5.376034 -1.12261 -2.015808
C 6.81395 -1.132321 -2.03487
C 7.535184 -1.643067 -3.037555
H 8.604820040544146 -1.6557357790385756 -3.062419488868945
H 5.162471 -0.1724 -0.150392
H 4.871675 -1.557494 -2.869558
H 7.319056 -0.697397 -1.181044
H 7.038273 -2.079808 -3.894936
