 20
 0.000000
  C 1.007466 -0.070479 0.049699
  C 2.503591 -0.082987 0.025146
  C 3.216379 -0.596687 -0.983338
  C 4.654522 -0.607636 -1.004832
  C 5.376847 -1.122234 -2.015074
  C 6.815747 -1.130371 -2.031041
  C 7.535986 -1.641530 -3.034539
  C 9.026199 -1.661123 -3.072995
  H 0.647832 0.396240 0.965943
  H 0.610706 -1.084989 0.012026
  H 0.610706 0.495540 -0.793079
  H 3.006301 0.351963 0.879029
  H 2.702948 -1.029618 -1.833244
  H 5.158385 -0.172498 -0.150584
  H 4.874778 -1.557743 -2.870047
  H 7.320498 -0.695358 -1.177038
  H 7.037961 -2.078060 -3.891503
  H 9.464166 -1.208534 -2.184494
  H 9.384191 -1.115535 -3.947577
  H 9.384191 -2.689341 -3.145906
 20
 0.305078
  C 1.021651 -0.072228 0.079916
  C 2.513306 -0.079475 0.032361
  C 3.223130 -0.582482 -0.980478
  C 4.641601 -0.599764 -1.036233
  C 5.356268 -1.115321 -2.052755
  C 6.787654 -1.131894 -2.080623
  C 7.531490 -1.651221 -3.057047
  C 9.038425 -1.665160 -3.042650
  H 0.659252 0.385239 0.996045
  H 0.631790 -1.088892 0.022901
  H 0.614102 0.479844 -0.767423
  H 3.029937 0.351897 0.877620
  H 2.706293 -1.016662 -1.831705
  H 5.163510 -0.163993 -0.185232
  H 4.841392 -1.551949 -2.906498
  H 7.280247 -0.686201 -1.219653
  H 7.048007 -2.101820 -3.927670
  H 9.388304 -1.206337 -2.119971
  H 9.443343 -1.108816 -3.902016
  H 9.419285 -2.696135 -3.103104
 20
 0.789376
  C 1.054277 -0.172676 0.166451
  C 2.533177 -0.043521 -0.004024
  C 3.206186 -0.521527 -1.055251
  C 4.631809 -0.454930 -1.177184
  C 5.339598 -1.008561 -2.176841
  C 6.772642 -0.990141 -2.205155
  C 7.535039 -1.695696 -3.042889
  C 9.017987 -1.748766 -2.930335
  H 0.724933 0.285078 1.094942
  H 0.761069 -1.222508 0.175330
  H 0.527980 0.305677 -0.660477
  H 3.070452 0.466368 0.780686
  H 2.664195 -1.027522 -1.843898
  H 5.155685 0.056485 -0.381014
  H 4.831880 -1.525362 -2.981015
  H 7.250381 -0.415143 -1.419263
  H 7.081913 -2.285747 -3.831033
  H 9.317580 -1.276154 -2.000372
  H 9.498398 -1.235902 -3.763412
  H 9.360428 -2.783366 -2.934822
 20
 2.145843
  C 1.108436 -0.216237 0.245341
  C 2.565012 -0.025480 -0.033087
  C 3.190218 -0.520465 -1.106013
  C 4.596886 -0.366524 -1.329433
  C 5.302466 -0.989074 -2.289064
  C 6.735649 -0.925189 -2.326029
  C 7.531175 -1.740149 -3.020534
  C 9.006900 -1.763975 -2.813957
  H 0.819810 0.268523 1.174069
  H 0.867840 -1.276148 0.320733
  H 0.504708 0.199590 -0.563744
  H 3.128315 0.537660 0.693757
  H 2.619807 -1.085872 -1.834331
  H 5.124295 0.253947 -0.613383
  H 4.806765 -1.618679 -3.016043
  H 7.188246 -0.219587 -1.634507
  H 7.112711 -2.453732 -3.719083
  H 9.226267 -1.227927 -1.895644
  H 9.540752 -1.300969 -3.643736
  H 9.358332 -2.790038 -2.718931
 20
 4.745036
  C 1.197583 -0.206575 0.334630
  C 2.623032 -0.001821 -0.073614
  C 3.172840 -0.549849 -1.162207
  C 4.550093 -0.377081 -1.505129
  C 5.232443 -1.049910 -2.444932
  C 6.662789 -0.930550 -2.470071
  C 7.529613 -1.792817 -3.001558
  C 8.981445 -1.705182 -2.652030
  H 0.969311 0.335077 1.250089
  H 0.994290 -1.266380 0.501120
  H 0.519743 0.137609 -0.448496
  H 3.230746 0.614929 0.572418
  H 2.556705 -1.164376 -1.809091
  H 5.105886 0.295631 -0.859437
  H 4.747855 -1.753077 -3.105291
  H 7.054741 -0.121125 -1.862670
  H 7.197889 -2.606872 -3.630910
  H 9.040954 -1.116386 -1.737645
  H 9.577368 -1.242181 -3.437459
  H 9.387291 -2.699370 -2.463463
 20
 6.110011
  C 1.260246 -0.245623 0.382165
  C 2.635630 0.051990 -0.120462
  C 3.188223 -0.547329 -1.179135
  C 4.529680 -0.307837 -1.605920
  C 5.209642 -1.035623 -2.503961
  C 6.633973 -0.872770 -2.586094
  C 7.501233 -1.841500 -2.876040
  C 8.949725 -1.706820 -2.551418
  H 1.024316 0.357916 1.253076
  H 1.171706 -1.301468 0.659220
  H 0.513620 -0.044195 -0.390789
  H 3.211756 0.783533 0.434912
  H 2.615648 -1.289081 -1.732762
  H 5.073136 0.453755 -1.054770
  H 4.735804 -1.818215 -3.074887
  H 7.011906 0.065591 -2.188284
  H 7.156735 -2.784204 -3.277906
  H 9.018972 -1.051876 -1.686439
  H 9.523551 -1.288055 -3.373721
  H 9.375815 -2.673518 -2.300645
 20
 9.169306
  C 1.386932 -0.219693 0.480081
  C 2.699789 0.078777 -0.171821
  C 3.179446 -0.591094 -1.225314
  C 4.477218 -0.340544 -1.763446
  C 5.152167 -1.099242 -2.635422
  C 6.574729 -0.906651 -2.707116
  C 7.488556 -1.866904 -2.842621
  C 8.890242 -1.635787 -2.376074
  H 1.187135 0.471136 1.295349
  H 1.378494 -1.235548 0.875947
  H 0.569301 -0.145221 -0.244439
  H 3.294992 0.869067 0.270507
  H 2.574607 -1.379893 -1.665545
  H 5.007008 0.487991 -1.305388
  H 4.696118 -1.945437 -3.133774
  H 6.911427 0.064336 -2.356287
  H 7.220970 -2.847669 -3.210678
  H 8.809353 -0.994138 -1.494776
  H 9.513321 -1.154913 -3.124688
  H 9.354799 -2.573589 -2.094107
 20
 11.228165
  C 1.463935 -0.212203 0.540542
  C 2.736403 0.091735 -0.182036
  C 3.179289 -0.593528 -1.239132
  C 4.447537 -0.323034 -1.840026
  C 5.125307 -1.120196 -2.682527
  C 6.549243 -0.919016 -2.774765
  C 7.477390 -1.883801 -2.796209
  C 8.849398 -1.601576 -2.271422
  H 1.305744 0.483910 1.360715
  H 1.483894 -1.213923 0.943703
  H 0.606765 -0.149059 -0.140048
  H 3.320223 0.919951 0.193703
  H 2.573573 -1.406670 -1.625561
  H 4.962332 0.544035 -1.435838
  H 4.683861 -2.009269 -3.099367
  H 6.878262 0.080825 -2.509916
  H 7.226397 -2.896992 -3.070335
  H 8.699137 -0.958750 -1.406322
  H 9.497274 -1.117400 -2.996350
  H 9.332127 -2.523616 -1.945431
 20
 14.107016
  C 1.593033 -0.237426 0.600337
  C 2.783899 0.140023 -0.224750
  C 3.228506 -0.580825 -1.261899
  C 4.413973 -0.241469 -1.977865
  C 5.104826 -1.087032 -2.760926
  C 6.525372 -0.899965 -2.859476
  C 7.405195 -1.891187 -2.691852
  C 8.752866 -1.617619 -2.094757
  H 1.418213 0.487258 1.391982
  H 1.735002 -1.218207 1.055779
  H 0.699436 -0.293278 -0.020639
  H 3.318485 1.032529 0.070845
  H 2.693460 -1.479961 -1.541639
  H 4.878276 0.696927 -1.698002
  H 4.679107 -2.034688 -3.071536
  H 6.873487 0.123382 -2.744044
  H 7.110198 -2.921260 -2.845355
  H 8.563117 -0.911678 -1.286451
  H 9.466022 -1.181896 -2.798477
  H 9.180341 -2.528827 -1.681857
 20
 15.799402
  C 1.668851 -0.237443 0.600091
  C 2.813622 0.174776 -0.270224
  C 3.255563 -0.547335 -1.307422
  C 4.411013 -0.192379 -2.059634
  C 5.099347 -1.053946 -2.824506
  C 6.524308 -0.882110 -2.922538
  C 7.372446 -1.883739 -2.665978
  C 8.698444 -1.627158 -2.019798
  H 1.487781 0.494462 1.382501
  H 1.869282 -1.199718 1.068910
  H 0.758855 -0.346032 0.010234
  H 3.312960 1.097548 -0.013556
  H 2.749855 -1.471541 -1.554485
  H 4.864639 0.758248 -1.814193
  H 4.673962 -2.010883 -3.097883
  H 6.887785 0.138838 -2.859143
  H 7.042223 -2.909702 -2.758300
  H 8.466187 -0.991978 -1.158543
  H 9.408654 -1.103988 -2.665393
  H 9.150511 -2.554684 -1.676464
 20
 19.852676
  C 1.830439 -0.273395 0.630751
  C 2.907166 0.177593 -0.304986
  C 3.290453 -0.512990 -1.383327
  C 4.418881 -0.160452 -2.177976
  C 5.073247 -1.036526 -2.957419
  C 6.502559 -0.891524 -3.048864
  C 7.309582 -1.882343 -2.656079
  C 8.540840 -1.596461 -1.854297
  H 1.679487 0.446890 1.429552
  H 2.088672 -1.233023 1.077330
  H 0.887544 -0.403763 0.099767
  H 3.425402 1.087200 -0.047425
  H 2.765556 -1.423015 -1.639592
  H 4.877874 0.794578 -1.962517
  H 4.639601 -2.000593 -3.182193
  H 6.883140 0.124733 -3.024289
  H 6.962003 -2.906203 -2.698835
  H 8.166157 -0.988344 -1.020954
  H 9.298070 -1.025806 -2.392583
  H 8.983517 -2.513231 -1.475088
 20
 26.855431
  C 2.035373 -0.326245 0.699003
  C 3.034092 0.143442 -0.310601
  C 3.340354 -0.535186 -1.421359
  C 4.410489 -0.165545 -2.292146
  C 5.048424 -1.046515 -3.089344
  C 6.480232 -0.906172 -3.125805
  C 7.243066 -1.893619 -2.634893
  C 8.297231 -1.570119 -1.621467
  H 1.943788 0.383146 1.516870
  H 2.331041 -1.291020 1.111759
  H 1.054502 -0.454377 0.240723
  H 3.573596 1.051401 -0.077310
  H 2.792749 -1.439944 -1.656198
  H 4.883209 0.786979 -2.083788
  H 4.625165 -2.025616 -3.269514
  H 6.862969 0.107808 -3.073591
  H 6.913101 -2.920639 -2.707123
  H 7.736381 -0.979318 -0.885407
  H 9.125064 -0.976601 -2.003279
  H 8.683524 -2.471003 -1.156502
 20
 28.162664
  C 1.977396 -0.398628 0.688607
  C 3.024193 0.127203 -0.243423
  C 3.355410 -0.464696 -1.398217
  C 4.464462 -0.050986 -2.197799
  C 5.094606 -0.869984 -3.060704
  C 6.529043 -0.803601 -3.031278
  C 7.229753 -1.875150 -2.635386
  C 8.278629 -1.726109 -1.576709
  H 1.877108 0.238839 1.563048
  H 2.232076 -1.404969 1.023188
  H 1.009539 -0.455978 0.189839
  H 3.581001 0.993545 0.087468
  H 2.789717 -1.325471 -1.733451
  H 4.968887 0.852585 -1.874360
  H 4.634462 -1.802552 -3.360302
  H 6.966097 0.180277 -2.893264
  H 6.852056 -2.869896 -2.829405
  H 7.736807 -1.186628 -0.789847
  H 9.147813 -1.145646 -1.878308
  H 8.599407 -2.693075 -1.205787
