 26
 0.000000
  C 0.973489 0.135312 0.395990
  C 2.449677 0.140981 0.393168
  C 3.233719 0.610578 1.560848
  C 2.455050 1.096721 2.778172
  H 3.132814 1.411830 3.560007
  C 3.072783 -0.322226 -0.760009
  C 4.450804 -0.409667 -0.968862
  C 5.121176 -0.864900 -2.097800
  C 4.621175 -1.386018 -3.399201
  C 3.131551 -1.498954 -3.691809
  H 2.981259 -1.897654 -4.686160
  O 6.444068 -0.866078 -2.091288
  H 0.541149 0.497069 1.321649
  H 0.608261 -0.877983 0.223639
  H 0.589750 0.751727 -0.418619
  H 3.888794 1.423076 1.226991
  H 3.892739 -0.204752 1.879489
  H 1.822323 0.302033 3.169936
  H 1.818257 1.939183 2.513462
  H 2.417926 -0.641002 -1.552512
  H 5.074955 -0.079151 -0.147300
  H 5.076149 -2.375122 -3.524227
  H 5.081115 -0.760493 -4.172620
  H 2.656236 -0.521500 -3.645002
  H 2.651230 -2.170264 -2.983182
  H 6.827720 -0.533386 -1.258316
 26
 0.468655
  C 0.998389 0.530056 0.281087
  C 2.438783 0.225539 0.350552
  C 3.207984 0.357543 1.613876
  C 2.443054 0.823541 2.845482
  H 3.116442 0.846523 3.700015
  C 3.045147 -0.214740 -0.821903
  C 4.418317 -0.239797 -1.051490
  C 5.104720 -0.668575 -2.181688
  C 4.629280 -1.432886 -3.368037
  C 3.167959 -1.824495 -3.504931
  H 3.059597 -2.429827 -4.400704
  O 6.402134 -0.436577 -2.270737
  H 0.633295 1.037575 1.161444
  H 0.424536 -0.393473 0.152044
  H 0.799496 1.140045 -0.601561
  H 4.045472 1.042485 1.444638
  H 3.665142 -0.614196 1.830651
  H 1.624482 0.145567 3.085857
  H 2.043703 1.828854 2.711395
  H 2.379404 -0.495049 -1.624420
  H 5.041785 0.199981 -0.282183
  H 5.244815 -2.338190 -3.392048
  H 4.938720 -0.863506 -4.249590
  H 2.529628 -0.952836 -3.626255
  H 2.833873 -2.420633 -2.659569
  H 6.782238 0.046068 -1.516741
 26
 4.831035
  C 1.086418 0.824400 0.214270
  C 2.423546 0.220097 0.356040
  C 3.129083 0.142451 1.651747
  C 2.432033 0.757357 2.856308
  H 3.037224 0.594368 3.745413
  C 3.018347 -0.272486 -0.807802
  C 4.360430 -0.129874 -1.121023
  C 5.050696 -0.522714 -2.263325
  C 4.632482 -1.411905 -3.383999
  C 3.237775 -2.013650 -3.407733
  H 3.159503 -2.661982 -4.277103
  O 6.288369 -0.102632 -2.442608
  H 0.793154 1.391560 1.090387
  H 0.327773 0.061248 0.028170
  H 1.102801 1.471850 -0.660480
  H 4.124311 0.589181 1.544034
  H 3.321994 -0.919093 1.852353
  H 1.461118 0.301206 3.028885
  H 2.302379 1.829999 2.734583
  H 2.350583 -0.685729 -1.540667
  H 4.944949 0.456445 -0.420103
  H 5.372307 -2.220288 -3.404073
  H 4.803913 -0.851898 -4.309635
  H 2.474805 -1.248660 -3.509014
  H 3.050130 -2.617837 -2.525805
  H 6.631790 0.471165 -1.730076
 26
 12.751478
  C 1.248048 0.995992 0.169343
  C 2.448147 0.177242 0.402117
  C 3.055915 -0.029514 1.729503
  C 2.389339 0.667827 2.906640
  H 2.904758 0.399136 3.824917
  C 3.043282 -0.383790 -0.748819
  C 4.318333 -0.072253 -1.166394
  C 4.996851 -0.458594 -2.317374
  C 4.617161 -1.426266 -3.385796
  C 3.288957 -2.162726 -3.316526
  H 3.221490 -2.827639 -4.174383
  O 6.178731 0.079072 -2.578256
  H 0.994008 1.615851 1.020252
  H 0.383676 0.372735 -0.071108
  H 1.449529 1.607630 -0.709927
  H 4.114612 0.255599 1.681219
  H 3.074165 -1.110275 1.911589
  H 1.350410 0.366110 3.008377
  H 2.434950 1.749170 2.804208
  H 2.399461 -0.984722 -1.373042
  H 4.856382 0.631707 -0.539296
  H 5.432918 -2.156901 -3.426145
  H 4.680421 -0.880595 -4.333419
  H 2.449334 -1.476440 -3.373764
  H 3.218811 -2.773356 -2.420791
  H 6.486928 0.716533 -1.909144
 26
 24.047996
  C 1.461754 1.224996 0.157706
  C 2.512407 0.239884 0.423448
  C 2.970258 -0.135498 1.770091
  C 2.274201 0.540722 2.942264
  H 2.678906 0.154915 3.874039
  C 3.112365 -0.380056 -0.727966
  C 4.277369 0.063898 -1.287744
  C 4.941308 -0.388258 -2.431056
  C 4.590719 -1.470563 -3.394600
  C 3.324244 -2.289156 -3.201775
  H 3.266385 -3.022505 -4.002823
  O 6.083496 0.191658 -2.781964
  H 1.256191 1.861068 1.010414
  H 0.529929 0.713980 -0.109160
  H 1.747035 1.810214 -0.715977
  H 4.053399 0.044425 1.825980
  H 2.874316 -1.223080 1.863423
  H 1.206077 0.341819 2.934161
  H 2.433250 1.616052 2.932618
  H 2.551028 -1.183599 -1.181092
  H 4.759181 0.894670 -0.782051
  H 5.455286 -2.143033 -3.422452
  H 4.567806 -0.999098 -4.383493
  H 2.435506 -1.668060 -3.263667
  H 3.342430 -2.835187 -2.262705
  H 6.361394 0.914889 -2.192227
 26
 17.897586
  C 1.734247 1.467950 0.190265
  C 2.657210 0.353481 0.428920
  C 2.920524 -0.202956 1.769948
  C 2.080551 0.337886 2.919485
  H 2.379796 -0.148038 3.845023
  C 3.262904 -0.284528 -0.690848
  C 4.269320 0.257246 -1.466321
  C 4.885938 -0.339929 -2.563607
  C 4.513377 -1.537684 -3.371664
  C 3.291381 -2.372888 -3.020209
  H 3.231394 -3.199046 -3.725729
  O 6.023529 0.173016 -3.013423
  H 1.505456 2.043074 1.078121
  H 0.798139 1.013777 -0.160046
  H 2.044643 2.105537 -0.637323
  H 3.982908 -0.018982 1.975744
  H 2.837095 -1.295891 1.731294
  H 1.023241 0.137775 2.761644
  H 2.221428 1.408541 3.049575
  H 2.895136 -1.274184 -0.910351
  H 4.692686 1.199067 -1.137857
  H 5.396479 -2.185446 -3.394408
  H 4.409639 -1.166519 -4.398341
  H 2.374752 -1.796624 -3.106901
  H 3.374648 -2.809993 -2.028840
  H 6.300028 0.988577 -2.558964
 26
 9.785837
  C 1.982673 1.522482 0.188608
  C 2.712114 0.277246 0.456131
  C 2.781734 -0.321224 1.806574
  C 2.027213 0.404366 2.911384
  H 2.135935 -0.144170 3.843436
  C 3.337195 -0.382264 -0.616429
  C 4.250133 0.221428 -1.472382
  C 4.815866 -0.305740 -2.628851
  C 4.464555 -1.523108 -3.414480
  C 3.336750 -2.437692 -2.963199
  H 3.229055 -3.233150 -3.696894
  O 5.823705 0.330781 -3.199972
  H 1.889150 2.168956 1.054774
  H 0.968757 1.227206 -0.102000
  H 2.377601 2.046768 -0.678369
  H 3.841371 -0.398543 2.073276
  H 2.433125 -1.359506 1.752744
  H 0.966980 0.474122 2.684431
  H 2.419889 1.405216 3.072030
  H 3.085668 -1.420868 -0.758939
  H 4.620493 1.193798 -1.167876
  H 5.386105 -2.106707 -3.512383
  H 4.250880 -1.161628 -4.426836
  H 2.390286 -1.906856 -2.908985
  H 3.560785 -2.910499 -2.011751
  H 6.100502 1.140556 -2.737311
 26
 1.620694
  C 2.364085 1.698085 0.321155
  C 2.867293 0.325523 0.474794
  C 2.630817 -0.419483 1.734410
  C 1.818379 0.293115 2.802073
  H 1.683229 -0.365444 3.654581
  C 3.494518 -0.336203 -0.573306
  C 4.235684 0.282373 -1.582112
  C 4.734153 -0.283491 -2.748730
  C 4.388907 -1.575475 -3.409293
  C 3.407824 -2.534508 -2.757856
  H 3.225597 -3.356654 -3.445148
  O 5.598673 0.397892 -3.482231
  H 2.499681 2.292583 1.218727
  H 1.285160 1.629073 0.165534
  H 2.769542 2.197151 -0.554030
  H 3.607865 -0.691905 2.146551
  H 2.151277 -1.373397 1.493716
  H 0.835891 0.568678 2.430143
  H 2.319979 1.188316 3.156257
  H 3.450755 -1.416555 -0.561157
  H 4.513596 1.315533 -1.420578
  H 5.331750 -2.092653 -3.606139
  H 4.011357 -1.296804 -4.398476
  H 2.456959 -2.052715 -2.553850
  H 3.811848 -2.963778 -1.846111
  H 5.856614 1.260056 -3.110680
 26
 2.644059
  C 2.432186 1.587395 0.207915
  C 2.985273 0.254358 0.488067
  C 2.617195 -0.474769 1.720523
  C 1.791085 0.295152 2.738649
  H 1.566361 -0.346913 3.585195
  C 3.786938 -0.384136 -0.449579
  C 4.450948 0.253338 -1.515488
  C 4.777695 -0.286552 -2.745036
  C 4.234514 -1.514958 -3.392685
  C 3.241307 -2.384182 -2.640642
  H 2.857920 -3.140100 -3.321455
  O 5.573275 0.374753 -3.570408
  H 2.352925 2.205043 1.101196
  H 1.416265 1.460676 -0.179427
  H 2.991809 2.079066 -0.577074
  H 3.533587 -0.844769 2.191157
  H 2.062866 -1.373895 1.427007
  H 0.848506 0.631136 2.312389
  H 2.332837 1.158344 3.114997
  H 3.957726 -1.437191 -0.314850
  H 4.829625 1.248195 -1.319628
  H 5.093783 -2.120328 -3.700013
  H 3.782082 -1.173618 -4.329768
  H 2.402366 -1.801032 -2.276862
  H 3.709537 -2.904356 -1.811146
  H 5.959492 1.188577 -3.200305
 26
 8.061744
  C 2.449813 1.393147 0.042284
  C 3.064727 0.135831 0.503346
  C 2.680511 -0.507226 1.781296
  C 1.779533 0.316547 2.692165
  H 1.540730 -0.254095 3.584804
  C 3.946547 -0.482857 -0.347524
  C 4.614682 0.188945 -1.417141
  C 4.834189 -0.288270 -2.688493
  C 4.117313 -1.403636 -3.370381
  C 3.065904 -2.177339 -2.593140
  H 2.556899 -2.855099 -3.272912
  O 5.633487 0.352412 -3.523875
  H 2.265927 2.109016 0.836899
  H 1.498277 1.178353 -0.451406
  H 3.072454 1.770126 -0.768517
  H 3.591819 -0.794951 2.316889
  H 2.167465 -1.446583 1.540507
  H 0.847826 0.569141 2.192529
  H 2.271238 1.231642 3.010344
  H 4.163981 -1.530521 -0.200973
  H 5.179778 1.067342 -1.117265
  H 4.882989 -2.094182 -3.740299
  H 3.669996 -0.969364 -4.270837
  H 2.321809 -1.515081 -2.162729
  H 3.508751 -2.777418 -1.805917
  H 6.132744 1.089719 -3.121504
 26
 17.300181
  C 2.445089 1.240534 -0.054174
  C 3.028282 -0.003286 0.517488
  C 2.687567 -0.516253 1.867994
  C 1.810391 0.405692 2.707415
  H 1.598811 -0.061289 3.664602
  C 3.953978 -0.622707 -0.288646
  C 4.612428 0.124178 -1.315866
  C 4.814106 -0.263090 -2.624961
  C 4.073775 -1.314872 -3.378607
  C 2.990820 -2.108328 -2.653929
  H 2.503509 -2.763107 -3.366717
  O 5.651229 0.398484 -3.408855
  H 2.197059 2.009322 0.661091
  H 1.582988 1.028253 -0.703870
  H 3.182642 1.478756 -0.834842
  H 3.609524 -0.745065 2.406639
  H 2.164596 -1.473425 1.736578
  H 0.867350 0.605416 2.215467
  H 2.312282 1.348231 2.906123
  H 4.276143 -1.630205 -0.096995
  H 5.324513 0.852317 -0.920073
  H 4.833809 -2.005889 -3.783626
  H 3.644473 -0.816093 -4.254849
  H 2.241014 -1.457543 -2.228645
  H 3.405105 -2.737120 -1.870037
  H 6.176385 1.082152 -2.956820
 26
 32.590913
  C 2.510715 1.061150 -0.140486
  C 3.077898 -0.099082 0.540153
  C 2.702631 -0.521588 1.923277
  C 1.786964 0.448036 2.659476
  H 1.539820 0.045546 3.639209
  C 4.029722 -0.721147 -0.208823
  C 4.591437 0.133677 -1.252334
  C 4.804649 -0.234244 -2.584625
  C 4.010867 -1.225659 -3.361577
  C 2.916309 -1.994348 -2.634453
  H 2.379129 -2.604570 -3.356530
  O 5.646601 0.443281 -3.349877
  H 2.147478 1.879214 0.464646
  H 1.857587 0.852954 -0.989623
  H 3.455684 1.157787 -0.932660
  H 3.610657 -0.684957 2.507983
  H 2.200911 -1.491078 1.844232
  H 0.858832 0.601294 2.115065
  H 2.273181 1.407720 2.809849
  H 4.369695 -1.725079 -0.060853
  H 5.384552 0.761989 -0.845381
  H 4.723909 -1.930002 -3.803542
  H 3.584660 -0.688409 -4.215337
  H 2.198576 -1.324066 -2.165667
  H 3.324453 -2.661265 -1.881589
  H 6.171063 1.118049 -2.891734
 26
 39.841851
  C 2.517477 1.062251 -0.098997
  C 3.060317 -0.100183 0.535412
  C 2.663699 -0.552872 1.911885
  C 1.748379 0.406731 2.661671
  H 1.491760 -0.015997 3.630040
  C 4.028068 -0.721804 -0.192944
  C 4.611020 0.159847 -1.239596
  C 4.822043 -0.246123 -2.590236
  C 4.022040 -1.249377 -3.334059
  C 2.869991 -1.926062 -2.607095
  H 2.338301 -2.561589 -3.309689
  O 5.711463 0.352653 -3.338592
  H 2.153479 1.878549 0.502963
  H 1.970580 0.940139 -1.022653
  H 3.767747 1.045533 -1.077954
  H 3.562655 -0.735521 2.504389
  H 2.155290 -1.515632 1.800738
  H 0.824895 0.577188 2.113302
  H 2.238948 1.361203 2.836681
  H 4.418884 -1.703751 0.006582
  H 5.462068 0.711513 -0.828336
  H 4.718987 -2.005759 -3.711611
  H 3.646848 -0.744416 -4.231407
  H 2.163954 -1.202214 -2.215128
  H 3.218778 -2.554532 -1.796405
  H 6.255915 1.029081 -2.892111
 26
 37.228038
  C 2.423129 1.085103 -0.062883
  C 3.031894 -0.043927 0.518421
  C 2.672749 -0.551667 1.892568
  C 1.722079 0.337221 2.682479
  H 1.502067 -0.127491 3.641110
  C 4.030901 -0.650829 -0.198229
  C 4.644227 0.194965 -1.261289
  C 4.884670 -0.310960 -2.589013
  C 4.056469 -1.316527 -3.289177
  C 2.828635 -1.856119 -2.571215
  H 2.285665 -2.510972 -3.248373
  O 5.840847 0.176293 -3.322758
  H 1.976190 1.843934 0.557340
  H 2.006094 1.033588 -1.053986
  H 3.907914 1.073127 -1.221165
  H 3.586398 -0.705138 2.470885
  H 2.211532 -1.533628 1.756913
  H 0.782191 0.476782 2.152118
  H 2.166558 1.310524 2.879347
  H 4.428469 -1.622244 0.035982
  H 5.528841 0.695800 -0.850226
  H 4.715707 -2.142761 -3.576724
  H 3.756054 -0.860628 -4.239326
  H 2.157371 -1.056643 -2.273076
  H 3.094837 -2.437493 -1.695887
  H 6.406058 0.852494 -2.899649
 26
 24.655473
  C 2.116132 1.144381 0.110685
  C 2.989821 0.170442 0.498055
  C 2.843697 -0.550401 1.826074
  C 1.732913 -0.041109 2.732060
  H 1.730554 -0.611590 3.659073
  C 4.069319 -0.251727 -0.279862
  C 4.591261 0.444883 -1.489403
  C 4.983204 -0.492766 -2.550683
  C 4.117287 -1.598351 -2.995359
  C 2.635431 -1.460945 -2.683154
  H 2.102865 -2.312457 -3.091737
  O 6.127805 -0.421837 -3.128703
  H 1.349632 1.505459 0.769602
  H 2.136528 1.575812 -0.874562
  H 3.820476 1.122136 -1.876347
  H 3.790914 -0.482428 2.363417
  H 2.667658 -1.608815 1.617198
  H 0.756554 -0.158383 2.264119
  H 1.881963 1.007151 2.985307
  H 4.637821 -1.100488 0.062634
  H 5.437841 1.075403 -1.198056
  H 4.500898 -2.517065 -2.531124
  H 4.279159 -1.740735 -4.068838
  H 2.223728 -0.559872 -3.131191
  H 2.456798 -1.431478 -1.611594
  H 6.727984 0.299030 -2.846487
