 29
 0.000000
  H 1.468827 0.163260 0.462174
  C 2.547735 0.146186 0.418152
  C 3.305028 0.616250 1.585089
  C 2.451416 1.087713 2.758021
  C 3.323254 1.555644 3.919212
  C 3.108725 -0.324529 -0.753288
  C 4.484044 -0.419763 -0.991675
  C 5.142155 -0.877564 -2.134292
  C 4.610275 -1.393538 -3.422286
  C 3.114379 -1.500015 -3.689663
  C 2.875514 -2.060790 -5.089545
  O 6.457245 -0.882305 -2.146628
  H 3.965396 1.435866 1.276889
  H 3.966520 -0.187565 1.930182
  H 1.809175 0.275067 3.102146
  H 1.808077 1.911482 2.443607
  H 3.958396 0.749591 4.279547
  H 2.702401 1.888410 4.747195
  H 3.957216 2.387365 3.620380
  H 2.425115 -0.634560 -1.524364
  H 5.122266 -0.093026 -0.177231
  H 5.060746 -2.383858 -3.558738
  H 5.061520 -0.771953 -4.204772
  H 2.646066 -0.516991 -3.630388
  H 2.645309 -2.169785 -2.968182
  H 3.310624 -1.415156 -5.848670
  H 1.809258 -2.138804 -5.285494
  H 3.309923 -3.052284 -5.192729
  H 6.856471 -0.551072 -1.318866
 29
 1.531389
  H 1.493908 -0.121618 0.627226
  C 2.568768 -0.086974 0.516142
  C 3.321164 0.549827 1.603804
  C 2.444901 1.116681 2.717290
  C 3.288025 1.750033 3.819034
  C 3.102837 -0.632991 -0.629358
  C 4.471965 -0.655386 -0.908719
  C 5.138899 -1.032047 -2.075529
  C 4.612240 -1.392155 -3.416008
  C 3.113992 -1.496364 -3.666926
  C 2.854691 -1.846513 -5.129981
  O 6.451878 -1.066612 -2.057534
  H 3.955298 1.348776 1.202122
  H 4.020319 -0.180002 2.031722
  H 1.831997 0.321719 3.146260
  H 1.770344 1.869728 2.305778
  H 3.957920 1.018215 4.265316
  H 2.649998 2.143779 4.606143
  H 3.884652 2.571419 3.428680
  H 2.417144 -1.079000 -1.327834
  H 5.152769 -0.398784 -0.107919
  H 5.087491 -2.340310 -3.694857
  H 5.038867 -0.655320 -4.107390
  H 2.626197 -0.546415 -3.445722
  H 2.678900 -2.278498 -3.044318
  H 3.258879 -1.083760 -5.791324
  H 1.786540 -1.921790 -5.316514
  H 3.308705 -2.799917 -5.389222
  H 6.933981 -0.580033 -1.362927
 29
 8.291741
  H 1.473210 -0.220482 0.679462
  C 2.544378 -0.162269 0.542905
  C 3.306924 0.542857 1.580398
  C 2.440996 1.154058 2.678921
  C 3.294687 1.828021 3.747498
  C 3.076234 -0.759959 -0.576697
  C 4.435309 -0.726445 -0.887188
  C 5.123364 -1.063339 -2.058340
  C 4.640078 -1.353281 -3.427008
  C 3.136604 -1.438907 -3.665901
  C 2.845641 -1.739932 -5.132346
  O 6.430544 -1.080018 -1.975703
  H 3.943737 1.313768 1.137125
  H 3.996928 -0.177495 2.040514
  H 1.839684 0.373963 3.148919
  H 1.756838 1.885537 2.244600
  H 3.965414 1.112796 4.216407
  H 2.664278 2.256970 4.522263
  H 3.889953 2.632199 3.319359
  H 2.409731 -1.309936 -1.218457
  H 5.206199 -0.512176 -0.167209
  H 5.090668 -2.306496 -3.726632
  H 5.080923 -0.598197 -4.085279
  H 2.659969 -0.494464 -3.399114
  H 2.702986 -2.226578 -3.049893
  H 3.241314 -0.962593 -5.779651
  H 1.773625 -1.814568 -5.296099
  H 3.284853 -2.691678 -5.426344
  H 7.028545 -0.612870 -1.368727
 29
 18.363298
  H 1.502134 -0.578169 0.801192
  C 2.558246 -0.447412 0.618397
  C 3.280071 0.452844 1.520897
  C 2.409953 1.137002 2.573237
  C 3.242357 2.043196 3.470080
  C 3.117737 -1.136499 -0.411867
  C 4.476657 -1.024670 -0.777428
  C 5.152198 -1.239268 -1.991059
  C 4.651077 -1.392955 -3.371744
  C 3.127042 -1.357398 -3.554422
  C 2.803879 -1.388612 -5.043205
  O 6.458967 -1.230256 -1.902402
  H 3.794162 1.220450 0.951108
  H 4.094427 -0.074044 2.003963
  H 1.938417 0.375710 3.206616
  H 1.620020 1.721499 2.100242
  H 4.019457 1.476752 3.987548
  H 2.610915 2.528724 4.213787
  H 3.718673 2.823350 2.889315
  H 2.499524 -1.845079 -0.948476
  H 5.334094 -0.828591 -0.129948
  H 5.078889 -2.277992 -3.837024
  H 5.061963 -0.522192 -3.902779
  H 2.777531 -0.391458 -3.167054
  H 2.663479 -2.192411 -3.068788
  H 3.260348 -0.539675 -5.550199
  H 1.726555 -1.333618 -5.203872
  H 3.177310 -2.298970 -5.508067
  H 7.158233 -0.835914 -1.361464
 29
 35.203810
  H 1.415869 -0.253764 0.761837
  C 2.481920 -0.209421 0.601981
  C 3.281898 0.522237 1.602160
  C 2.459724 1.178033 2.697398
  C 3.331242 1.891893 3.707582
  C 2.991973 -0.834720 -0.510602
  C 4.338466 -0.813158 -0.856743
  C 5.058438 -1.094711 -2.045494
  C 4.666372 -1.313325 -3.438118
  C 3.170354 -1.395057 -3.682859
  C 2.883805 -1.691308 -5.146331
  O 6.351139 -1.070905 -1.831630
  H 3.889077 1.239544 1.078971
  H 3.990851 -0.176641 2.019189
  H 1.856777 0.405750 3.187751
  H 1.744288 1.873327 2.240177
  H 4.034835 1.210339 4.184698
  H 2.715122 2.372318 4.469487
  H 3.889351 2.679051 3.222014
  H 2.315703 -1.405626 -1.139429
  H 5.274457 -0.678198 -0.322171
  H 5.123564 -2.262107 -3.721834
  H 5.145232 -0.552810 -4.072323
  H 2.650044 -0.468421 -3.412370
  H 2.731914 -2.201640 -3.110724
  H 3.277620 -0.898723 -5.778634
  H 1.807152 -1.746811 -5.324295
  H 3.347380 -2.624837 -5.462194
  H 7.162204 -0.847805 -1.342168
 29
 72.599227
  H 1.362569 -0.380652 0.909367
  C 2.419558 -0.330471 0.691269
  C 3.258242 0.452895 1.617390
  C 2.453679 1.168277 2.701471
  C 3.372028 1.982315 3.608149
  C 2.894778 -0.995729 -0.406389
  C 4.217819 -0.947614 -0.831600
  C 4.955057 -1.166771 -1.986778
  C 4.683996 -1.299391 -3.431870
  C 3.190556 -1.346140 -3.757096
  C 2.961613 -1.522176 -5.252751
  O 6.247380 -1.135635 -1.636356
  H 3.808694 1.198771 1.036907
  H 3.995018 -0.201807 2.092670
  H 1.899642 0.442335 3.300776
  H 1.740690 1.846017 2.228754
  H 4.095392 1.342589 4.109327
  H 2.793428 2.509933 4.362894
  H 3.912210 2.728562 3.030796
  H 2.218628 -1.652663 -0.942340
  H 5.444556 -0.841990 -0.414481
  H 5.153141 -2.232148 -3.762314
  H 5.170949 -0.489817 -3.981690
  H 2.711047 -0.428166 -3.417024
  H 2.731383 -2.180054 -3.225399
  H 3.379815 -0.689714 -5.810917
  H 1.895361 -1.564633 -5.466558
  H 3.411499 -2.446091 -5.611320
  H 7.113939 -1.004785 -1.226842
 29
 87.719643
  H 1.325162 -0.385709 0.962217
  C 2.373455 -0.329711 0.708455
  C 3.236033 0.483594 1.598017
  C 2.461931 1.203707 2.699213
  C 3.391392 2.030004 3.581623
  C 2.819235 -1.006544 -0.380160
  C 4.125744 -0.963820 -0.861750
  C 4.851809 -1.167965 -1.942709
  C 4.627194 -1.315993 -3.395789
  C 3.146620 -1.384008 -3.765808
  C 2.972125 -1.550921 -5.270866
  O 6.230622 -1.084396 -1.533648
  H 3.773956 1.218103 0.989319
  H 3.994760 -0.154511 2.060166
  H 1.936968 0.472501 3.317770
  H 1.710950 1.859608 2.253621
  H 4.131568 1.395206 4.063632
  H 2.826151 2.536962 4.359937
  H 3.911069 2.784582 2.995648
  H 2.133516 -1.689999 -0.875215
  H 5.580934 -0.849469 -0.492959
  H 5.128703 -2.235511 -3.714581
  H 5.105979 -0.487018 -3.925279
  H 2.645975 -0.469833 -3.443463
  H 2.679959 -2.227791 -3.256584
  H 3.405711 -0.710339 -5.807609
  H 1.917130 -1.609262 -5.526492
  H 3.451905 -2.463716 -5.617260
  H 7.103899 -1.007371 -1.095866
 29
 74.067025
  H 1.204986 -0.328845 1.163729
  C 2.226178 -0.283728 0.816273
  C 3.178513 0.501619 1.638559
  C 2.515427 1.221117 2.810550
  C 3.534211 2.014080 3.622201
  C 2.562178 -0.950200 -0.306795
  C 3.805971 -0.946004 -0.908522
  C 4.544607 -1.119344 -1.926528
  C 4.542842 -1.313242 -3.373869
  C 3.123799 -1.444926 -3.928923
  C 3.164520 -1.667899 -5.437739
  O 6.119270 -0.981560 -1.371412
  H 3.670472 1.237392 0.992870
  H 3.967518 -0.153534 2.019874
  H 2.028257 0.494375 3.464268
  H 1.746019 1.902058 2.441573
  H 4.300225 1.357874 4.029919
  H 3.048503 2.519664 4.453522
  H 4.018078 2.768610 3.005629
  H 1.822896 -1.612279 -0.751721
  H 5.669345 -0.817129 -0.503793
  H 5.123928 -2.214098 -3.595062
  H 5.063056 -0.479340 -3.856843
  H 2.560170 -0.538594 -3.707215
  H 2.625155 -2.289656 -3.453594
  H 3.652446 -0.835337 -5.939150
  H 2.156147 -1.757835 -5.831475
  H 3.706687 -2.578891 -5.679986
  H 7.072701 -0.875299 -1.136838
 29
 66.673117
  H 1.173675 -0.432216 1.492919
  C 2.134267 -0.365164 0.998418
  C 3.153456 0.491936 1.619963
  C 2.646857 1.257954 2.836830
  C 3.743566 2.125329 3.445276
  C 2.331395 -1.087654 -0.139320
  C 3.457348 -1.070287 -0.932551
  C 4.194261 -1.160474 -1.916348
  C 4.439474 -1.285662 -3.326530
  C 3.120816 -1.491503 -4.096299
  C 3.403009 -1.671784 -5.584309
  O 6.122545 -0.979873 -1.202597
  H 3.522248 1.199698 0.865575
  H 4.017709 -0.114692 1.917863
  H 2.283689 0.553619 3.589941
  H 1.807947 1.890661 2.543570
  H 4.584812 1.516921 3.769125
  H 3.365450 2.662865 4.311020
  H 4.103656 2.858232 2.726338
  H 1.555330 -1.782795 -0.466692
  H 5.583977 -0.863855 -0.402242
  H 5.081344 -2.160782 -3.479585
  H 4.971086 -0.410358 -3.705608
  H 2.481082 -0.624509 -3.945163
  H 2.599948 -2.367798 -3.712338
  H 3.918305 -0.803873 -5.989857
  H 2.467023 -1.799020 -6.124829
  H 4.016731 -2.548725 -5.765293
  H 7.014207 -0.703405 -0.718027
 29
 47.878363
  H 1.156649 -0.505354 1.806924
  C 2.028032 -0.438267 1.170271
  C 3.113932 0.446046 1.597903
  C 2.815991 1.250469 2.856657
  C 3.995251 2.134422 3.247216
  C 2.047159 -1.192192 0.024375
  C 3.034857 -1.170943 -0.934583
  C 3.757684 -1.192535 -1.926445
  C 4.263864 -1.236280 -3.248240
  C 3.145236 -1.477226 -4.276267
  C 3.726140 -1.575261 -5.679439
  O 5.958381 -0.955137 -0.993996
  H 3.361041 1.123177 0.769087
  H 4.021646 -0.148140 1.760050
  H 2.587674 0.574345 3.683111
  H 1.936779 1.876381 2.691649
  H 4.881993 1.537279 3.446349
  H 3.763661 2.698816 4.146655
  H 4.228079 2.843921 2.456723
  H 1.236476 -1.883853 -0.169535
  H 5.331930 -0.944362 -0.261225
  H 4.975630 -2.068291 -3.303714
  H 4.824309 -0.326225 -3.475363
  H 2.438767 -0.647726 -4.227008
  H 2.608822 -2.395745 -4.036503
  H 4.260925 -0.666230 -5.943865
  H 2.927090 -1.721241 -6.402205
  H 4.412499 -2.414318 -5.763390
  H 6.794811 -0.735208 -0.556548
 29
 44.187088
  H 1.315331 -0.776914 2.043436
  C 2.090053 -0.683201 1.294887
  C 3.088310 0.369317 1.477619
  C 2.839433 1.283305 2.669475
  C 3.931483 2.338253 2.804539
  C 2.064453 -1.559124 0.236146
  C 2.929321 -1.509549 -0.838436
  C 3.678482 -1.392894 -1.801082
  C 4.254103 -1.238425 -3.089952
  C 3.171051 -1.239500 -4.190136
  C 3.813716 -1.117670 -5.563202
  O 5.930520 -1.587152 -0.796330
  H 3.164321 0.957627 0.553202
  H 4.080159 -0.090310 1.578650
  H 2.795042 0.693471 3.587366
  H 1.873889 1.780061 2.552953
  H 4.904808 1.876901 2.954256
  H 3.732346 2.981304 3.657922
  H 3.979319 2.964566 1.916966
  H 1.312651 -2.338123 0.205313
  H 5.363571 -1.775005 -0.036954
  H 4.921104 -2.089406 -3.268210
  H 4.856598 -0.329721 -3.131418
  H 2.502542 -0.394958 -4.019647
  H 2.583548 -2.156019 -4.134099
  H 4.397342 -0.203626 -5.640741
  H 3.042431 -1.094250 -6.329781
  H 4.466630 -1.962338 -5.769102
  H 6.701556 -1.151593 -0.419417
 29
 43.149410
  H 1.504570 -1.011875 1.951638
  C 2.307726 -0.873073 1.242664
  C 3.153137 0.317719 1.399578
  C 2.674689 1.279968 2.482283
  C 3.604595 2.481617 2.606200
  C 2.465448 -1.815422 0.262312
  C 3.373664 -1.733658 -0.755144
  C 4.195967 -1.555207 -1.673676
  C 4.482375 -1.239972 -3.057747
  C 3.175257 -1.060201 -3.848711
  C 3.479240 -0.759086 -5.310292
  O 5.992035 -1.951468 -1.015603
  H 3.226895 0.837807 0.437198
  H 4.178553 0.007476 1.630913
  H 2.625907 0.762570 3.442235
  H 1.667848 1.628447 2.243748
  H 4.611187 2.168370 2.873557
  H 3.248134 3.158867 3.378310
  H 3.650761 3.033650 1.670308
  H 1.814912 -2.680718 0.252478
  H 5.718467 -2.298682 -0.152966
  H 5.054303 -2.062595 -3.493715
  H 5.084077 -0.332663 -3.124797
  H 2.600610 -0.239151 -3.418250
  H 2.574780 -1.967223 -3.776142
  H 4.071481 0.147771 -5.405571
  H 2.554026 -0.618575 -5.863704
  H 4.026902 -1.578136 -5.770339
  H 6.674271 -1.284747 -0.832277
 29
 40.154428
  H 1.539078 -1.106547 1.726948
  C 2.416320 -0.940065 1.120616
  C 3.204943 0.284870 1.377047
  C 2.563390 1.212271 2.407315
  C 3.418277 2.452001 2.648591
  C 2.721686 -1.870956 0.157696
  C 3.742721 -1.770220 -0.725752
  C 4.582880 -1.589159 -1.662030
  C 4.605764 -1.217611 -3.089108
  C 3.185351 -1.033227 -3.633336
  C 3.219482 -0.673223 -5.114495
  O 6.137613 -1.913707 -1.243645
  H 3.352976 0.821870 0.433186
  H 4.205073 0.009281 1.728638
  H 2.428804 0.678713 3.350881
  H 1.576037 1.518426 2.054202
  H 4.400022 2.178094 3.029232
  H 2.947210 3.102390 3.382105
  H 3.546459 3.017576 1.728089
  H 2.106871 -2.759367 0.079465
  H 6.072272 -2.271393 -0.333372
  H 5.105934 -2.013731 -3.646247
  H 5.168315 -0.292555 -3.230621
  H 2.681788 -0.241475 -3.075831
  H 2.618456 -1.955051 -3.494171
  H 3.768358 0.251770 -5.278040
  H 2.209047 -0.536214 -5.492482
  H 3.690700 -1.462759 -5.696052
  H 6.750669 -1.146934 -1.226336
 29
 37.099733
  H 1.596934 -1.220235 1.591648
  C 2.499949 -1.026064 1.035014
  C 3.205094 0.252729 1.292407
  C 2.464001 1.158855 2.272733
  C 3.224983 2.457073 2.517426
  C 2.918352 -1.961030 0.113274
  C 4.010021 -1.847831 -0.672865
  C 4.847836 -1.695842 -1.635277
  C 4.669274 -1.223667 -3.042473
  C 3.201705 -0.955689 -3.374325
  C 3.046763 -0.483420 -4.815297
  O 6.285841 -2.039424 -1.399700
  H 3.352998 0.783856 0.345585
  H 4.204890 0.047326 1.689363
  H 2.327471 0.636806 3.222360
  H 1.472520 1.391438 1.877792
  H 4.207354 2.254960 2.938460
  H 2.682949 3.090828 3.215320
  H 3.352903 3.009428 1.589154
  H 2.356565 -2.883473 0.025237
  H 6.417084 -2.248358 -0.446926
  H 5.054570 -1.994261 -3.714541
  H 5.238865 -0.306165 -3.206200
  H 2.805696 -0.196413 -2.698016
  H 2.620340 -1.866617 -3.225802
  H 3.600112 0.437673 -4.984202
  H 2.000768 -0.293932 -5.042769
  H 3.411403 -1.235925 -5.510844
  H 6.889253 -1.309558 -1.674046
 29
 39.474776
  H 1.435163 -1.003167 1.279022
  C 2.425855 -0.867147 0.874840
  C 3.200653 0.307942 1.345793
  C 2.428465 1.173900 2.338355
  C 3.256559 2.367362 2.801454
  C 2.886685 -1.766975 -0.053535
  C 4.102456 -1.724366 -0.655860
  C 4.930485 -1.654703 -1.643324
  C 4.684031 -1.290707 -3.078988
  C 3.204424 -1.059586 -3.380488
  C 3.000482 -0.688751 -4.845287
  O 6.370367 -1.893388 -1.411012
  H 3.494096 0.918455 0.484754
  H 4.127920 -0.031851 1.818093
  H 2.146797 0.572783 3.205851
  H 1.508055 1.532905 1.872219
  H 4.167382 2.035969 3.295305
  H 2.691554 2.972823 3.506165
  H 3.529691 2.997437 1.957755
  H 2.268079 -2.629589 -0.277554
  H 6.619563 -1.633210 -0.494253
  H 5.045772 -2.110411 -3.705352
  H 5.233767 -0.381354 -3.335910
  H 2.820426 -0.259325 -2.745827
  H 2.637441 -1.963115 -3.153525
  H 3.535946 0.224962 -5.093665
  H 1.945759 -0.526836 -5.052632
  H 3.353647 -1.482979 -5.499279
  H 6.914977 -1.404012 -2.070625
