 13
 0.000000
  C 0.958810 -0.016524 -0.005385
  C 2.455461 0.001322 0.013638
  C 3.168075 0.811647 0.796797
  C 4.610352 0.832811 0.816383
  C 5.320492 1.640463 1.596995
  H 6.395087 1.650361 1.605819
  H 0.597499 -0.754819 -0.718522
  H 0.563034 0.955199 -0.299739
  H 0.561165 -0.273331 0.975379
  H 2.957151 -0.686579 -0.652953
  H 2.656514 1.497099 1.460104
  H 5.115951 0.144891 0.150766
  H 4.821403 2.327889 2.262120
 13
 3.642456
  C 0.958325 -0.055951 0.002112
  C 2.429112 -0.004934 0.018702
  C 3.145791 0.804057 0.802388
  C 4.589814 0.844254 0.810477
  C 5.303310 1.647913 1.591032
  H 6.379268 1.653238 1.577954
  H 0.562678 -0.753593 -0.726649
  H 0.781391 0.958582 -0.287963
  H 0.522203 -0.262940 0.976157
  H 2.951909 -0.680583 -0.647959
  H 2.641148 1.484010 1.478435
  H 5.088749 0.164922 0.130487
  H 4.827859 2.331135 2.275825
 13
 11.552313
  C 0.944143 -0.080334 0.012133
  C 2.421689 -0.019074 0.026782
  C 3.136481 0.788467 0.815722
  C 4.573759 0.854947 0.799590
  C 5.286761 1.651941 1.583613
  H 6.361441 1.674725 1.548840
  H 0.525924 -0.752286 -0.723783
  H 0.980339 0.941535 -0.303997
  H 0.482531 -0.205639 0.982116
  H 2.960919 -0.682100 -0.642575
  H 2.634193 1.450072 1.510291
  H 5.071061 0.200501 0.096501
  H 4.815894 2.312199 2.294424
 13
 22.142028
  C 0.932550 -0.098422 0.017237
  C 2.409847 -0.013245 0.028301
  C 3.126113 0.790507 0.820424
  C 4.564188 0.864026 0.791925
  C 5.284136 1.655115 1.580041
  H 6.360348 1.679283 1.537022
  H 0.506799 -0.754505 -0.719252
  H 1.127241 0.911708 -0.305061
  H 0.452096 -0.186781 0.982444
  H 2.955027 -0.670054 -0.644525
  H 2.627352 1.441752 1.523066
  H 5.056836 0.220947 0.079562
  H 4.817283 2.306129 2.304927
 13
 31.896139
  C 0.912812 -0.115004 0.020399
  C 2.400399 -0.001579 0.037135
  C 3.120431 0.793608 0.837903
  C 4.560004 0.878062 0.787458
  C 5.291126 1.656937 1.581838
  H 6.361735 1.689945 1.518916
  H 0.496295 -0.788267 -0.713135
  H 1.238690 0.857594 -0.343669
  H 0.414048 -0.129662 0.971773
  H 2.951066 -0.648050 -0.641152
  H 2.621870 1.430973 1.564380
  H 5.049413 0.249667 0.045677
  H 4.836323 2.284158 2.324789
 13
 40.200844
  C 0.906068 -0.131842 0.021906
  C 2.393991 0.011302 0.041285
  C 3.122798 0.798355 0.852244
  C 4.550063 0.889926 0.784145
  C 5.291063 1.655093 1.582844
  H 6.376023 1.693536 1.502620
  H 0.505885 -0.823720 -0.690808
  H 1.333462 0.812489 -0.389236
  H 0.381127 -0.077479 0.963391
  H 2.929419 -0.619987 -0.646581
  H 2.632380 1.415380 1.591834
  H 5.029536 0.280030 0.024788
  H 4.845435 2.265419 2.344687
 13
 46.380282
  C 0.897929 -0.146808 0.028212
  C 2.386253 0.024971 0.043727
  C 3.120604 0.802342 0.863359
  C 4.557227 0.900339 0.781483
  C 5.308769 1.654628 1.584449
  H 6.362462 1.695234 1.491821
  H 0.501608 -0.864519 -0.669405
  H 1.403886 0.773253 -0.428142
  H 0.357352 -0.027541 0.946774
  H 2.917907 -0.596755 -0.662837
  H 2.631894 1.402575 1.616956
  H 5.028078 0.308162 0.010851
  H 4.874159 2.251286 2.362219
 13
 50.484182
  C 0.900340 -0.156427 0.034286
  C 2.385578 0.032013 0.036665
  C 3.125411 0.798220 0.874795
  C 4.548348 0.910366 0.777720
  C 5.305335 1.650973 1.587277
  H 6.374243 1.705266 1.476325
  H 0.504634 -0.902493 -0.623045
  H 1.469361 0.722164 -0.483335
  H 0.343367 0.059356 0.930034
  H 2.915751 -0.574173 -0.680371
  H 2.637871 1.371837 1.649276
  H 5.016032 0.339813 -0.016578
  H 4.875716 2.226745 2.387153
 13
 53.604282
  C 0.895878 -0.168440 0.044525
  C 2.385326 0.042515 0.025457
  C 3.128239 0.793975 0.880151
  C 4.552097 0.921299 0.772268
  C 5.313247 1.651640 1.590410
  H 6.380274 1.708546 1.475567
  H 0.490934 -0.939377 -0.581083
  H 1.513422 0.685052 -0.524424
  H 0.339563 0.126747 0.910577
  H 2.919087 -0.557484 -0.705603
  H 2.639490 1.348427 1.668822
  H 5.018678 0.367860 -0.035048
  H 4.886562 2.210137 2.404874
 13
 57.078956
  C 0.913478 -0.175833 0.049658
  C 2.382923 0.050132 0.011670
  C 3.130415 0.793361 0.879782
  C 4.543420 0.912979 0.773862
  C 5.311675 1.643524 1.592394
  H 6.368570 1.718136 1.460095
  H 0.508009 -0.937184 -0.563516
  H 1.559479 0.671993 -0.534892
  H 0.354949 0.152956 0.912919
  H 2.925433 -0.553868 -0.731847
  H 2.631039 1.356313 1.686206
  H 5.002352 0.372159 -0.033757
  H 4.895950 2.192547 2.396857
 13
 59.675990
  C 0.900657 -0.190758 0.062854
  C 2.386016 0.056058 0.001432
  C 3.136303 0.798751 0.873621
  C 4.560410 0.930016 0.763369
  C 5.324521 1.649039 1.585773
  H 6.399697 1.698995 1.471359
  H 0.473493 -0.963395 -0.566120
  H 1.584449 0.670249 -0.543398
  H 0.352286 0.158883 0.904055
  H 2.914067 -0.532842 -0.718077
  H 2.646626 1.341037 1.663614
  H 5.025763 0.385572 -0.046861
  H 4.894542 2.208668 2.419008
 13
 62.187942
  C 0.907419 -0.200398 0.072051
  C 2.389985 0.058822 -0.010938
  C 3.143724 0.797079 0.871966
  C 4.556357 0.930947 0.760453
  C 5.323275 1.648108 1.589270
  H 6.390326 1.700974 1.473023
  H 0.476953 -0.952246 -0.551459
  H 1.623571 0.672164 -0.553436
  H 0.356739 0.176817 0.910272
  H 2.930180 -0.544837 -0.736413
  H 2.649792 1.334371 1.671584
  H 5.021851 0.394682 -0.056843
  H 4.900368 2.201000 2.406182
 13
 64.353476
  C 0.913162 -0.213061 0.084513
  C 2.392125 0.061810 -0.025080
  C 3.149687 0.794916 0.867557
  C 4.561958 0.933878 0.754185
  C 5.329704 1.647336 1.586909
  H 6.399937 1.692452 1.475882
  H 0.468147 -0.952886 -0.549535
  H 1.656363 0.679085 -0.563011
  H 0.366113 0.186390 0.911620
  H 2.933054 -0.543719 -0.741899
  H 2.650658 1.326920 1.676101
  H 5.025801 0.406322 -0.061401
  H 4.903272 2.211194 2.402149
 13
 66.139360
  C 0.920618 -0.231554 0.102971
  C 2.396389 0.069413 -0.040717
  C 3.156041 0.805365 0.858019
  C 4.565437 0.944635 0.745348
  C 5.334341 1.655357 1.581411
  H 6.405906 1.683419 1.482984
  H 0.463040 -0.957079 -0.538431
  H 1.685542 0.691126 -0.578451
  H 0.373380 0.189016 0.918711
  H 2.937338 -0.543166 -0.752942
  H 2.653426 1.340733 1.664191
  H 5.031446 0.409598 -0.062868
  H 4.909793 2.197246 2.412882
