17

H 1.4732832946123842 -0.11744706080578143 -0.03864486399482484
C 2.543128 -0.135676 -0.038755
C 3.259315 -1.264963 -0.045525
C 4.696951 -1.288758 -0.045665
C 5.418234 -2.423551 -0.052468
C 6.856437 -2.445138 -0.052594
C 7.575493 -3.572185 -0.05935
C 9.065395 -3.614842 -0.059605
H 3.044049 0.823296 -0.033011
H 2.749657 -2.220545 -0.051251
H 5.201165 -0.330537 -0.039927
H 4.914496 -3.381932 -0.058213
H 7.362589 -1.487692 -0.046863
H 7.077037 -4.533428 -0.065106
H 9.498395 -2.616241 -0.053618
H 9.424887 -4.14043 -0.945573
H 9.424887 -4.151008 0.820002
