 17
 0.000000
  H 1.473551 -0.121539 -0.038669
  C 2.545892 -0.137467 -0.038766
  C 3.260137 -1.263227 -0.045515
  C 4.697283 -1.287769 -0.045659
  C 5.419260 -2.422124 -0.052460
  C 6.856528 -2.445215 -0.052595
  C 7.575140 -3.570874 -0.059342
  C 9.064088 -3.615078 -0.059606
  H 3.043509 0.821893 -0.033019
  H 2.751495 -2.220329 -0.051250
  H 5.201134 -0.329847 -0.039923
  H 4.915501 -3.380172 -0.058202
  H 7.362366 -1.488144 -0.046866
  H 7.076359 -4.531488 -0.065094
  H 9.496392 -2.616814 -0.053622
  H 9.423382 -4.141157 -0.944874
  H 9.423381 -4.151726 0.819294
 17
 8.204575
  H 1.461162 -0.187708 -0.026392
  C 2.526975 -0.114247 -0.038418
  C 3.259340 -1.244904 -0.041648
  C 4.689253 -1.281239 -0.044315
  C 5.413947 -2.414212 -0.052954
  C 6.849913 -2.446515 -0.052339
  C 7.568759 -3.572253 -0.059752
  C 9.056584 -3.615855 -0.059482
  H 3.249760 0.672127 -0.051554
  H 2.675579 -2.142594 -0.054246
  H 5.192227 -0.319711 -0.035806
  H 4.898443 -3.367974 -0.059906
  H 7.357421 -1.489785 -0.045696
  H 7.065802 -4.531002 -0.066695
  H 9.465449 -2.601037 -0.051833
  H 9.427757 -4.116250 -0.949025
  H 9.426548 -4.128397 0.823892
 17
 34.953494
  H 1.447368 -0.131574 -0.011521
  C 2.507903 -0.096133 -0.038310
  C 3.259104 -1.253043 -0.018159
  C 4.683336 -1.281933 -0.016043
  C 5.410291 -2.414449 -0.042838
  C 6.842125 -2.440213 -0.047512
  C 7.571206 -3.559824 -0.064326
  C 9.059498 -3.603378 -0.059062
  H 3.405570 0.435777 -0.148584
  H 2.569184 -2.045783 -0.054970
  H 5.175011 -0.315329 -0.005000
  H 4.889713 -3.364944 -0.059252
  H 7.350158 -1.485366 -0.026019
  H 7.081401 -4.524242 -0.077776
  H 9.467980 -2.593657 -0.054343
  H 9.432481 -4.101026 -0.957935
  H 9.428026 -4.134531 0.815431
 17
 45.857593
  H 1.474459 -0.103684 0.197128
  C 2.500858 -0.073284 0.018237
  C 3.260350 -1.241766 0.012343
  C 4.677502 -1.271306 -0.057784
  C 5.408061 -2.397586 -0.100017
  C 6.841803 -2.420902 -0.055445
  C 7.567891 -3.546514 -0.076022
  C 9.048602 -3.595064 -0.044054
  H 3.380508 0.357398 -0.410345
  H 2.635964 -2.113357 -0.004227
  H 5.138203 -0.292210 -0.038928
  H 4.869041 -3.333187 -0.127019
  H 7.371141 -1.480030 -0.001329
  H 7.093090 -4.521268 -0.117612
  H 9.481538 -2.597545 -0.008482
  H 9.451820 -4.149359 -0.898481
  H 9.376896 -4.144271 0.845730
 17
 58.957597
  H 1.422777 0.015897 0.253569
  C 2.472668 -0.129276 0.061747
  C 3.302291 -1.240718 -0.009972
  C 4.712950 -1.237162 -0.018990
  C 5.427647 -2.384829 -0.058113
  C 6.858976 -2.429144 -0.046715
  C 7.570972 -3.558470 -0.041201
  C 9.060365 -3.617781 -0.026805
  H 3.212963 0.227138 -0.614594
  H 2.685834 -2.110121 -0.068029
  H 5.215879 -0.281724 -0.002043
  H 4.917891 -3.332460 -0.075264
  H 7.372747 -1.468874 -0.037588
  H 7.046316 -4.511961 -0.064569
  H 9.461814 -2.609869 -0.029320
  H 9.413561 -4.115061 -0.934095
  H 9.421394 -4.167060 0.845509
 17
 62.605004
  H 1.516204 0.107822 0.330441
  C 2.535517 -0.045909 0.064165
  C 3.293445 -1.227199 0.009788
  C 4.698191 -1.254175 -0.009061
  C 5.419705 -2.391871 -0.005727
  C 6.851351 -2.425576 0.023378
  C 7.576030 -3.551193 -0.025442
  C 9.065461 -3.600889 -0.038571
  H 3.055156 0.073774 -0.896009
  H 2.727742 -2.189632 -0.026150
  H 5.158838 -0.273776 -0.055681
  H 4.902650 -3.339064 -0.014898
  H 7.370195 -1.471884 0.052199
  H 7.079833 -4.511226 -0.111659
  H 9.493813 -2.605798 0.024519
  H 9.405173 -4.073042 -0.965666
  H 9.430838 -4.216107 0.775675
 17
 77.197290
  H 1.564084 0.019381 0.600438
  C 2.582182 0.017326 0.123683
  C 3.299827 -1.180659 -0.061579
  C 4.712690 -1.217847 -0.098917
  C 5.439260 -2.371926 -0.092805
  C 6.856660 -2.415663 -0.065909
  C 7.573464 -3.552984 -0.030237
  C 9.060466 -3.613747 -0.010786
  H 2.778843 -0.092709 -0.984621
  H 2.807297 -2.155896 -0.049822
  H 5.194093 -0.265409 -0.029246
  H 4.923912 -3.318983 -0.145354
  H 7.377775 -1.456853 -0.065692
  H 7.079652 -4.499018 0.051470
  H 9.505605 -2.622438 -0.087773
  H 9.426284 -4.228733 -0.844568
  H 9.399198 -4.087193 0.894410
 17
 92.114521
  H 1.679474 0.292906 0.720822
  C 2.599022 0.032031 0.194696
  C 3.258329 -1.180195 -0.051883
  C 4.717636 -1.212991 -0.169699
  C 5.429249 -2.350458 -0.170095
  C 6.860822 -2.399390 -0.101169
  C 7.566177 -3.533750 -0.080507
  C 9.050593 -3.607738 0.025612
  H 2.763244 -0.593292 -1.018676
  H 2.817593 -2.188524 -0.002870
  H 5.210001 -0.248475 -0.143262
  H 4.916791 -3.305287 -0.179230
  H 7.371047 -1.448356 -0.060715
  H 7.052374 -4.487595 -0.122710
  H 9.492283 -2.613472 0.063068
  H 9.465867 -4.146976 -0.826264
  H 9.335657 -4.156738 0.926206
