 25
 0.000000
  C 0.970023 0.142056 0.405432
  C 2.443046 0.140174 0.400067
  C 3.235241 0.605878 1.558561
  C 2.464599 1.095723 2.778257
  H 3.154738 1.407108 3.553064
  C 3.051354 -0.326770 -0.762270
  C 4.432826 -0.414216 -0.980650
  C 5.096466 -0.862284 -2.097820
  C 4.625957 -1.381544 -3.392489
  C 3.142733 -1.506612 -3.704842
  H 3.013587 -1.907275 -4.703956
  H 6.177349 -0.847220 -2.060461
  H 0.539692 0.512335 1.326864
  H 0.598555 -0.869152 0.232186
  H 0.598110 0.751939 -0.419358
  H 3.894966 1.412280 1.218512
  H 3.895365 -0.211324 1.870908
  H 1.832736 0.306625 3.181028
  H 1.832428 1.943960 2.523304
  H 2.377137 -0.639933 -1.541421
  H 5.062039 -0.085880 -0.162885
  H 5.096849 -2.366061 -3.515071
  H 5.097150 -0.754855 -4.161427
  H 2.655958 -0.534621 -3.667644
  H 2.655721 -2.183446 -3.006416
 25
 -0.417018
  C 0.967080 0.117687 0.428606
  C 2.438519 0.128521 0.395695
  C 3.225558 0.630289 1.539977
  C 2.453025 1.107264 2.760932
  H 3.152791 1.417879 3.531612
  C 3.047334 -0.360044 -0.757244
  C 4.430472 -0.480760 -0.958640
  C 5.088520 -0.906008 -2.087617
  C 4.626707 -1.359051 -3.404183
  C 3.147483 -1.434827 -3.738204
  H 3.030704 -1.791998 -4.756198
  H 6.169514 -0.911395 -2.015899
  H 0.562467 0.766752 1.193780
  H 0.624789 -0.897867 0.638613
  H 0.551982 0.387301 -0.539709
  H 3.863926 1.445692 1.183629
  H 3.914217 -0.161647 1.852727
  H 1.831751 0.316545 3.170419
  H 1.821060 1.959352 2.527282
  H 2.374828 -0.669712 -1.538189
  H 5.066721 -0.204594 -0.128251
  H 5.083386 -2.344090 -3.565285
  H 5.131159 -0.720967 -4.141316
  H 2.679880 -0.456756 -3.675652
  H 2.631082 -2.131457 -3.084649
 25
 -0.432755
  C 0.969857 -0.007981 0.489513
  C 2.436890 0.029180 0.414402
  C 3.228534 0.674933 1.482864
  C 2.452268 1.221139 2.671477
  H 3.146959 1.618736 3.406700
  C 3.042243 -0.541311 -0.700729
  C 4.423580 -0.703297 -0.885923
  C 5.090942 -1.033967 -2.038986
  C 4.635962 -1.283555 -3.411708
  C 3.159306 -1.245654 -3.765375
  H 3.043742 -1.438521 -4.829389
  H 6.168860 -1.097855 -1.946410
  H 0.565104 0.867133 0.986028
  H 0.669138 -0.872551 1.087556
  H 0.512495 -0.117682 -0.490274
  H 3.819250 1.482371 1.036010
  H 3.966881 -0.049531 1.846243
  H 1.862770 0.443293 3.149550
  H 1.787344 2.030273 2.378473
  H 2.356994 -0.888546 -1.454875
  H 5.047537 -0.543161 -0.016054
  H 5.052522 -2.258466 -3.701219
  H 5.181656 -0.575340 -4.050628
  H 2.729656 -0.269583 -3.554679
  H 2.605581 -2.013353 -3.231407
 25
 1.242337
  C 0.958876 -0.234403 0.585733
  C 2.420541 -0.164567 0.424799
  C 3.231414 0.700617 1.313822
  C 2.485988 1.404668 2.435928
  H 3.192743 1.948990 3.056821
  C 3.009887 -0.867023 -0.614806
  C 4.392274 -1.063429 -0.790399
  C 5.084168 -1.205922 -1.959493
  C 4.646001 -1.099736 -3.358872
  C 3.173420 -0.921172 -3.680831
  H 3.051617 -0.815198 -4.756848
  H 6.156816 -1.340149 -1.861856
  H 0.536409 0.746166 0.781900
  H 0.723538 -0.849917 1.457073
  H 0.467301 -0.670417 -0.277709
  H 3.745097 1.446303 0.698159
  H 4.033802 0.089443 1.740495
  H 1.958186 0.694374 3.066060
  H 1.767164 2.125388 2.049925
  H 2.313128 -1.324308 -1.300225
  H 4.982317 -1.096426 0.116467
  H 5.029267 -1.988262 -3.877673
  H 5.220545 -0.274524 -3.803121
  H 2.775033 -0.027560 -3.205484
  H 2.593287 -1.786116 -3.368304
 25
 5.333781
  C 0.984936 -0.412592 0.626758
  C 2.432558 -0.266834 0.402506
  C 3.221152 0.738433 1.150288
  C 2.485519 1.470967 2.261194
  H 3.178180 2.117214 2.793479
  C 3.019661 -1.056331 -0.568521
  C 4.407772 -1.282073 -0.768322
  C 5.103631 -1.258815 -1.933106
  C 4.646140 -0.938311 -3.291260
  C 3.167448 -0.697625 -3.522790
  H 3.000709 -0.436917 -4.563071
  H 6.170355 -1.431499 -1.864079
  H 0.508165 0.559057 0.640373
  H 0.800950 -0.870737 1.598701
  H 0.492005 -1.000310 -0.142585
  H 3.627919 1.466125 0.440048
  H 4.098501 0.223223 1.565476
  H 2.056416 0.774391 2.975638
  H 1.690470 2.097486 1.867974
  H 2.257955 -1.562299 -1.143280
  H 4.975744 -1.470964 0.136979
  H 4.967932 -1.777902 -3.923292
  H 5.235656 -0.087880 -3.649095
  H 2.807810 0.121204 -2.905189
  H 2.586832 -1.587508 -3.306130
 25
 13.219724
  C 1.060870 -0.585615 0.624613
  C 2.510897 -0.399209 0.462190
  C 3.221536 0.743077 1.081971
  C 2.434292 1.568825 2.090934
  H 3.076560 2.332991 2.529042
  C 3.120127 -1.223719 -0.458132
  C 4.488733 -1.438956 -0.758798
  C 5.116805 -1.311945 -1.950674
  C 4.593655 -0.807402 -3.236095
  C 3.098561 -0.551274 -3.348290
  H 2.873908 -0.105128 -4.313941
  H 6.181762 -1.532168 -1.968364
  H 0.589440 0.377513 0.603641
  H 0.823924 -1.102790 1.553705
  H 0.593178 -1.114694 -0.206684
  H 3.605882 1.399532 0.291051
  H 4.134053 0.350068 1.553720
  H 2.043857 0.938925 2.890510
  H 1.590525 2.071612 1.620200
  H 2.274033 -1.699343 -0.961744
  H 5.093621 -1.761970 0.081591
  H 4.924119 -1.492441 -4.026271
  H 5.127115 0.137946 -3.421986
  H 2.762106 0.130135 -2.566623
  H 2.540268 -1.478443 -3.268750
 25
 32.857048
  C 1.167919 -0.677073 0.613003
  C 2.613420 -0.330306 0.452719
  C 3.221854 0.839292 1.150937
  C 2.267831 1.567542 2.080202
  H 2.827250 2.332845 2.604455
  C 3.281718 -1.101801 -0.467206
  C 4.593253 -1.456686 -0.823216
  C 5.149792 -1.354371 -2.066301
  C 4.537633 -0.859012 -3.293778
  C 3.078029 -0.456967 -3.273802
  H 2.803252 -0.061260 -4.249416
  H 6.202271 -1.626806 -2.154415
  H 0.599540 0.225852 0.596559
  H 1.026866 -1.213469 1.542503
  H 0.712762 -1.265436 -0.193379
  H 3.596888 1.530490 0.399771
  H 4.052949 0.430172 1.718193
  H 1.847200 0.885551 2.813687
  H 1.478740 2.065365 1.521919
  H 2.319336 -1.589399 -0.701123
  H 5.208689 -1.871296 -0.023464
  H 4.753818 -1.543121 -4.117479
  H 5.129044 0.023214 -3.591292
  H 2.896767 0.320413 -2.534054
  H 2.439762 -1.317551 -3.089373
 25
 62.429981
  C 1.286774 -0.800894 0.552430
  C 2.725804 -0.327701 0.450846
  C 3.186615 0.915355 1.169347
  C 2.131590 1.578096 2.042442
  H 2.586438 2.407239 2.580015
  C 3.475989 -1.056923 -0.365215
  C 4.700172 -1.482706 -0.847568
  C 5.150077 -1.454539 -2.136868
  C 4.513607 -0.862304 -3.334956
  C 3.113851 -0.290627 -3.160116
  H 2.765593 0.113660 -4.106990
  H 6.115453 -1.904453 -2.327959
  H 0.686251 0.087398 0.557586
  H 1.116049 -1.343957 1.481778
  H 0.769040 -1.321585 -0.279904
  H 3.556835 1.637426 0.436015
  H 4.052288 0.649510 1.782429
  H 1.738392 0.886656 2.782764
  H 1.312528 1.983943 1.454088
  H 2.175864 -1.487691 -0.578166
  H 5.309484 -2.029333 -0.132860
  H 4.466945 -1.666466 -4.080133
  H 5.192044 -0.105029 -3.739954
  H 3.115153 0.510693 -2.426942
  H 2.425127 -1.069325 -2.848143
 25
 71.905708
  C 1.310289 -0.801860 0.504991
  C 2.783106 -0.335339 0.435895
  C 3.217916 0.927057 1.151003
  C 2.142146 1.554942 2.028241
  H 2.572471 2.395143 2.569074
  C 3.551628 -1.050530 -0.348846
  C 4.733133 -1.510093 -0.855467
  C 5.174600 -1.471390 -2.151127
  C 4.513384 -0.873410 -3.339521
  C 3.121233 -0.293548 -3.133440
  H 2.766927 0.133528 -4.069023
  H 6.147070 -1.898950 -2.353877
  H 0.694233 0.103706 0.480759
  H 1.131336 -1.336029 1.440536
  H 0.734838 -1.349728 -0.321411
  H 3.555135 1.656557 0.410120
  H 4.086596 0.680797 1.766976
  H 1.766834 0.850163 2.764800
  H 1.315738 1.945876 1.440096
  H 1.896907 -1.528772 -0.398327
  H 5.355545 -2.054138 -0.148578
  H 4.477349 -1.639662 -4.123176
  H 5.182263 -0.094904 -3.727945
  H 3.139168 0.492223 -2.384637
  H 2.429372 -1.076997 -2.839844
 25
 69.865084
  C 1.221961 -0.819015 0.568762
  C 2.732175 -0.399635 0.381112
  C 3.183997 0.889373 1.053225
  C 2.170605 1.551255 1.979291
  H 2.649887 2.396272 2.469278
  C 3.537609 -1.093887 -0.369763
  C 4.739683 -1.502542 -0.845919
  C 5.224919 -1.425187 -2.127530
  C 4.580111 -0.822295 -3.324909
  C 3.166355 -0.290624 -3.137166
  H 2.808036 0.127364 -4.075131
  H 6.214353 -1.822155 -2.307067
  H 0.718892 0.145990 0.681968
  H 1.181006 -1.394184 1.497320
  H 0.343168 -1.266626 -0.055058
  H 3.483263 1.601218 0.279587
  H 4.083869 0.654381 1.626689
  H 1.835309 0.872356 2.758540
  H 1.315560 1.949466 1.437593
  H 1.459721 -1.397989 -0.398214
  H 5.353792 -2.046111 -0.131826
  H 4.582062 -1.576989 -4.121188
  H 5.232392 -0.016763 -3.685696
  H 3.149609 0.490904 -2.384250
  H 2.503636 -1.101788 -2.852239
 25
 70.347130
  C 1.151597 -0.773382 0.524021
  C 2.701993 -0.354941 0.344490
  C 3.146260 0.910972 1.061559
  C 2.178743 1.522613 2.068843
  H 2.686109 2.342385 2.573165
  C 3.514468 -1.020144 -0.416299
  C 4.735707 -1.436504 -0.841553
  C 5.239922 -1.425885 -2.115832
  C 4.591879 -0.907048 -3.350696
  C 3.187039 -0.346614 -3.182990
  H 2.801451 -0.029943 -4.148962
  H 6.241378 -1.806653 -2.261694
  H 0.720943 0.159180 0.892919
  H 1.245019 -1.545447 1.290663
  H 0.188097 -1.168735 0.027958
  H 3.402232 1.663769 0.311679
  H 4.072957 0.657782 1.580934
  H 1.884733 0.806134 2.831998
  H 1.298333 1.949986 1.593864
  H 1.258702 -0.909136 -0.594810
  H 5.350494 -1.908266 -0.078693
  H 4.573995 -1.719321 -4.087797
  H 5.249955 -0.139654 -3.777059
  H 3.198380 0.511651 -2.517950
  H 2.532798 -1.119732 -2.790208
 25
 36.863422
  C 0.759362 -1.290880 0.319701
  C 3.431975 0.447088 0.248596
  C 2.892384 1.623742 0.821384
  C 2.371436 1.444982 2.247799
  H 2.220916 2.415043 2.714614
  C 4.005880 -0.492034 -0.284832
  C 4.658137 -1.602143 -0.761950
  C 4.890451 -1.913745 -2.082576
  C 4.505998 -1.167102 -3.276052
  C 3.694973 0.101230 -3.113329
  H 3.492762 0.536235 -4.087763
  H 5.425050 -2.837815 -2.271659
  H 0.113037 -0.646759 0.907375
  H 1.501693 -1.752579 0.960956
  H 0.153335 -2.065332 -0.138499
  H 2.139078 2.069495 0.163808
  H 3.736483 2.334047 0.854932
  H 3.070543 0.870641 2.851583
  H 1.417751 0.920831 2.236400
  H 1.246509 -0.712521 -0.450647
  H 5.011409 -2.287806 -0.000526
  H 4.002605 -1.865390 -3.959718
  H 5.438483 -0.942696 -3.819582
  H 4.228838 0.832958 -2.513470
  H 2.744097 -0.106423 -2.628994
