 29
 0.000000
  C 0.966237 0.140328 0.401879
  C 2.442467 0.138417 0.396115
  C 3.231802 0.606946 1.561183
  C 2.459962 1.097804 2.782794
  C 3.415767 1.541362 3.885871
  C 3.056343 -0.326482 -0.761001
  C 4.433992 -0.411133 -0.972448
  C 5.116090 -0.861490 -2.095431
  C 4.625890 -1.384333 -3.399434
  C 3.136916 -1.502821 -3.695924
  H 2.984543 -1.900687 -4.688272
  O 6.438351 -0.855047 -2.079433
  H 0.534267 0.510961 1.324109
  H 0.594114 -0.871383 0.235565
  H 0.593570 0.755214 -0.418331
  H 3.887977 1.417810 1.225396
  H 3.888382 -0.210448 1.879911
  H 1.822712 0.301849 3.172677
  H 1.822389 1.941964 2.513464
  H 4.051687 0.718792 4.206033
  H 2.855633 1.888788 4.750607
  H 4.051346 2.356908 3.547598
  H 2.398015 -0.644121 -1.551287
  H 5.050830 -0.079045 -0.145488
  H 5.083908 -2.372077 -3.523717
  H 5.084377 -0.756413 -4.171717
  H 2.660015 -0.525436 -3.645884
  H 2.659555 -2.174643 -2.984591
  H 6.810131 -0.519933 -1.242131
 29
 9.078720
  C 0.952051 0.150666 0.426627
  C 2.429255 0.150344 0.425621
  C 3.216326 0.619860 1.593662
  C 2.441244 1.110200 2.813611
  C 3.397248 1.553471 3.916824
  C 3.049620 -0.314478 -0.731120
  C 4.416896 -0.393530 -0.928733
  C 5.170779 -0.896788 -2.183956
  C 4.654059 -1.412709 -3.470117
  C 3.156691 -1.514223 -3.723041
  H 2.979076 -1.912468 -4.716027
  O 6.477870 -0.886338 -2.159044
  H 0.519062 0.521088 1.348128
  H 0.581452 -0.860958 0.256561
  H 0.581273 0.763077 -0.396258
  H 3.873376 1.431029 1.260220
  H 3.873376 -0.196436 1.914360
  H 1.804266 0.313798 3.202730
  H 1.804405 1.954492 2.543367
  H 4.032867 0.730566 4.236482
  H 2.838021 1.901172 4.781965
  H 4.033018 2.368619 3.578169
  H 2.395544 -0.633817 -1.525764
  H 5.043802 -0.065984 -0.113392
  H 5.102820 -2.403842 -3.603642
  H 5.102806 -0.788602 -4.251615
  H 2.689504 -0.534564 -3.663958
  H 2.689571 -2.181627 -3.003410
  H 6.853400 -0.551012 -1.321682
 29
 27.406728
  C 0.947550 0.157648 0.437667
  C 2.421262 0.158455 0.441934
  C 3.205535 0.625860 1.608358
  C 2.425919 1.114995 2.826654
  C 3.382616 1.556524 3.930286
  C 3.046387 -0.302204 -0.705224
  C 4.402193 -0.369796 -0.873916
  C 5.223364 -0.927348 -2.263453
  C 4.665607 -1.432970 -3.518934
  C 3.165404 -1.516099 -3.719365
  H 2.966258 -1.917254 -4.716080
  O 6.499333 -0.893913 -2.185059
  H 0.516664 0.527754 1.359151
  H 0.578444 -0.852548 0.259534
  H 0.579475 0.764995 -0.389466
  H 3.863368 1.436991 1.279400
  H 3.862091 -0.188605 1.931384
  H 1.789546 0.317399 3.213503
  H 1.790944 1.959948 2.555026
  H 4.017331 0.732260 4.247450
  H 2.826151 1.904319 4.796782
  H 4.018898 2.370615 3.590697
  H 2.400264 -0.620489 -1.498083
  H 5.079985 -0.058259 -0.099203
  H 5.101679 -2.427077 -3.670601
  H 5.099250 -0.819556 -4.317194
  H 2.706868 -0.535029 -3.659468
  H 2.709719 -2.184053 -2.996368
  H 6.862185 -0.557995 -1.349631
 29
 48.530762
  C 0.916464 0.173406 0.476392
  C 2.400212 0.175240 0.483944
  C 3.187644 0.646232 1.659587
  C 2.406370 1.135612 2.877967
  C 3.361649 1.577461 3.982781
  C 3.038410 -0.291746 -0.678738
  C 4.383334 -0.356971 -0.841381
  C 5.273221 -0.967888 -2.364688
  C 4.700855 -1.468398 -3.607249
  C 3.191702 -1.541752 -3.782354
  H 2.973775 -1.940032 -4.771854
  O 6.556816 -0.932575 -2.282551
  H 0.484304 0.543567 1.397800
  H 0.546860 -0.837973 0.297626
  H 0.548221 0.781302 -0.352075
  H 3.846533 1.458684 1.331673
  H 3.845022 -0.168701 1.984421
  H 1.769839 0.337659 3.264393
  H 1.771619 1.980723 2.605629
  H 3.996262 0.752999 4.300445
  H 2.804311 1.925376 4.849144
  H 3.998181 2.391766 3.643442
  H 2.388778 -0.613884 -1.481587
  H 5.078055 -0.052829 -0.084726
  H 5.132365 -2.466211 -3.764011
  H 5.129444 -0.855528 -4.411696
  H 2.740047 -0.557266 -3.714440
  H 2.743400 -2.206820 -3.051263
  H 6.929959 -0.593404 -1.439336
 29
 69.342986
  C 0.915268 0.184045 0.501544
  C 2.389349 0.187766 0.514088
  C 3.171163 0.655297 1.681983
  C 2.386478 1.142818 2.896431
  C 3.338215 1.585183 4.003578
  C 3.024209 -0.271658 -0.630140
  C 4.371031 -0.332725 -0.782186
  C 5.322255 -0.998910 -2.442702
  C 4.720927 -1.495213 -3.673475
  C 3.210006 -1.552753 -3.807694
  H 2.962561 -1.948892 -4.790854
  O 6.587226 -0.957925 -2.347079
  H 0.484178 0.553921 1.422692
  H 0.547181 -0.826645 0.322138
  H 0.548716 0.791393 -0.326674
  H 3.829526 1.467556 1.355285
  H 3.827860 -0.158849 2.007200
  H 1.749813 0.343963 3.280475
  H 1.751739 1.987169 2.622130
  H 3.972642 0.761022 4.322218
  H 2.778803 1.932384 4.868669
  H 3.974713 2.400003 3.665625
  H 2.381492 -0.591312 -1.427033
  H 5.097155 -0.037948 -0.048796
  H 5.141271 -2.496454 -3.839541
  H 5.137774 -0.886378 -4.487321
  H 2.770721 -0.563743 -3.727609
  H 2.774730 -2.212634 -3.064204
  H 6.956268 -0.622421 -1.513550
 29
 87.080591
  C 0.919037 0.178911 0.488264
  C 2.399621 0.195475 0.532695
  C 3.166053 0.669458 1.716985
  C 2.357010 1.151171 2.917777
  C 3.285355 1.600139 4.041743
  C 3.070274 -0.263402 -0.610548
  C 4.399144 -0.313358 -0.734582
  C 5.383734 -1.040079 -2.545536
  C 4.719581 -1.521279 -3.738118
  C 3.197178 -1.536012 -3.765036
  H 2.870342 -1.922332 -4.722883
  O 6.644147 -0.998825 -2.449610
  H 0.470077 0.545899 1.402778
  H 0.559965 -0.835013 0.304040
  H 0.561390 0.785434 -0.345468
  H 3.823735 1.487485 1.400365
  H 3.822292 -0.141916 2.053163
  H 1.719667 0.347220 3.290498
  H 1.721397 1.991337 2.632184
  H 3.920507 0.780034 4.370130
  H 2.708581 1.943315 4.897487
  H 3.922390 2.419024 3.713947
  H 2.440393 -0.590052 -1.425236
  H 5.178057 -0.042091 -0.059066
  H 5.108171 -2.532753 -3.931584
  H 5.104338 -0.923995 -4.578726
  H 2.792994 -0.533702 -3.657803
  H 2.797559 -2.186677 -2.992764
  H 7.032661 -0.662370 -1.613778
 29
 102.267145
  C 0.900097 0.190968 0.520106
  C 2.382049 0.211109 0.573244
  C 3.146150 0.686858 1.760900
  C 2.331982 1.168310 2.960188
  C 3.256315 1.619206 4.087581
  C 3.062947 -0.247413 -0.568666
  C 4.395007 -0.294842 -0.686239
  C 5.428733 -1.078272 -2.639870
  C 4.743013 -1.553884 -3.820063
  C 3.224389 -1.552627 -3.808362
  H 2.864200 -1.937388 -4.763465
  O 6.685118 -1.039336 -2.549029
  H 0.447274 0.557475 1.432897
  H 0.543076 -0.823680 0.335412
  H 0.544413 0.797313 -0.314704
  H 3.804047 1.505309 1.445826
  H 3.802802 -0.123411 2.098874
  H 1.694603 0.363466 3.330856
  H 1.696138 2.007442 2.672001
  H 3.891379 0.800244 4.418194
  H 2.676492 1.961744 4.941055
  H 3.893039 2.438737 3.761573
  H 2.438964 -0.574196 -1.383869
  H 5.197695 -0.033858 -0.035793
  H 5.117866 -2.567630 -4.020350
  H 5.114482 -0.959284 -4.666681
  H 2.836631 -0.547483 -3.687630
  H 2.840611 -2.196264 -3.024902
  H 7.080294 -0.705549 -1.718555
 29
 114.639142
  C 0.896691 0.204222 0.555250
  C 2.373338 0.228626 0.619055
  C 3.127577 0.704883 1.806651
  C 2.304973 1.184358 2.999503
  C 3.220441 1.638013 4.132105
  C 3.065276 -0.228577 -0.518759
  C 4.382827 -0.273730 -0.630404
  C 5.465146 -1.113543 -2.726838
  C 4.762636 -1.587415 -3.904786
  C 3.241111 -1.572607 -3.860509
  H 2.856042 -1.950917 -4.801180
  O 6.728538 -1.079843 -2.648554
  H 0.437481 0.570077 1.465545
  H 0.543679 -0.811259 0.369341
  H 0.545051 0.809821 -0.281387
  H 3.785367 1.524014 1.494604
  H 3.784196 -0.103460 2.147920
  H 1.667419 0.377931 3.366103
  H 1.668952 2.021514 2.706533
  H 3.855567 0.820723 4.467223
  H 2.633909 1.979456 4.981678
  H 3.857129 2.459170 3.809703
  H 2.445386 -0.557494 -1.339371
  H 5.203155 -0.020919 0.000430
  H 5.126900 -2.604961 -4.111051
  H 5.123980 -0.993565 -4.757670
  H 2.866132 -0.562258 -3.728118
  H 2.869568 -2.212412 -3.065858
  H 7.133682 -0.746625 -1.818227
 29
 122.560903
  C 0.883603 0.223960 0.605946
  C 2.353246 0.251727 0.677824
  C 3.096405 0.728783 1.866515
  C 2.266985 1.207644 3.057164
  C 3.177821 1.663217 4.193401
  C 3.061625 -0.209878 -0.470568
  C 4.393328 -0.258157 -0.589715
  C 5.510423 -1.157086 -2.834547
  C 4.793488 -1.627823 -4.006089
  C 3.276441 -1.595968 -3.920615
  H 2.857387 -1.970062 -4.851765
  O 6.770763 -1.137024 -2.789714
  H 0.415375 0.588642 1.512913
  H 0.536162 -0.792679 0.416654
  H 0.537383 0.827676 -0.234121
  H 3.754738 1.547886 1.556606
  H 3.753741 -0.077782 2.209633
  H 1.629464 0.400260 3.421700
  H 1.630843 2.043821 2.761655
  H 3.813014 0.847397 4.531452
  H 2.587435 2.003788 5.040275
  H 3.814396 2.485323 3.873618
  H 2.442851 -0.540421 -1.295250
  H 5.222029 -0.008758 0.033354
  H 5.143092 -2.647919 -4.218192
  H 5.140679 -1.035935 -4.864546
  H 2.919412 -0.581913 -3.774560
  H 2.922122 -2.229172 -3.113914
  H 7.186013 -0.807840 -1.968674
 29
 127.616150
  C 0.881772 0.237359 0.641529
  C 2.345642 0.270044 0.724825
  C 3.076217 0.747933 1.914277
  C 2.241630 1.225638 3.101572
  C 3.148285 1.682754 4.240086
  C 3.056417 -0.185132 -0.407217
  C 4.359123 -0.232815 -0.524882
  C 5.533518 -1.187010 -2.908119
  C 4.810445 -1.661871 -4.091676
  C 3.291793 -1.621065 -3.985874
  H 2.854683 -1.991088 -4.908053
  O 6.827368 -1.177683 -2.888841
  H 0.400761 0.599948 1.542890
  H 0.541989 -0.781187 0.446752
  H 0.542823 0.838087 -0.204054
  H 3.735582 1.566752 1.606216
  H 3.734978 -0.056687 2.258859
  H 1.604500 0.417506 3.464560
  H 1.605490 2.060839 2.804065
  H 3.783761 0.868245 4.580805
  H 2.554393 2.022615 5.084833
  H 3.784686 2.505850 3.922524
  H 2.444799 -0.517132 -1.235138
  H 5.181987 0.019550 0.105995
  H 5.152531 -2.684380 -4.305474
  H 5.150938 -1.069310 -4.952620
  H 2.945021 -0.603807 -3.831377
  H 2.946785 -2.250708 -3.171382
  H 7.251859 -0.848042 -2.064934
 29
 130.235661
  C 0.875239 0.249597 0.680777
  C 2.336801 0.292291 0.784748
  C 3.041517 0.776376 1.984218
  C 2.194204 1.250465 3.162170
  C 3.090553 1.712695 4.306846
  C 3.074410 -0.161429 -0.342763
  C 4.390065 -0.211671 -0.466494
  C 5.580386 -1.227945 -3.005174
  C 4.833585 -1.701264 -4.193137
  C 3.317893 -1.634202 -4.029800
  H 2.832212 -1.992338 -4.927962
  O 6.856166 -1.260523 -3.083568
  H 0.367661 0.607247 1.568810
  H 0.552310 -0.772522 0.467767
  H 0.551201 0.837888 -0.181295
  H 3.707023 1.593613 1.680847
  H 3.708566 -0.021708 2.331882
  H 1.558775 0.439920 3.521560
  H 1.557446 2.082747 2.859427
  H 3.727173 0.902195 4.654788
  H 2.488197 2.050633 5.146632
  H 3.725591 2.538965 3.994942
  H 2.475537 -0.497222 -1.178908
  H 5.205258 0.045926 0.179395
  H 5.151619 -2.727666 -4.411450
  H 5.153553 -1.108286 -5.058243
  H 3.002245 -0.608975 -3.853678
  H 3.000297 -2.255387 -3.196185
  H 7.317262 -0.941429 -2.280837
 29
 132.340541
  C 0.864419 0.271286 0.736112
  C 2.313919 0.313806 0.839896
  C 3.012108 0.796828 2.035430
  C 2.161796 1.271167 3.212566
  C 3.056308 1.734612 4.358859
  C 3.053382 -0.140895 -0.289006
  C 4.380133 -0.192485 -0.415735
  C 5.612532 -1.265752 -3.098960
  C 4.856062 -1.731856 -4.271001
  C 3.349084 -1.654205 -4.082213
  H 2.840751 -2.011147 -4.979128
  O 6.900305 -1.308146 -3.201178
  H 0.355582 0.629033 1.623335
  H 0.543634 -0.749598 0.521856
  H 0.542648 0.857251 -0.126465
  H 3.677942 1.612743 1.732664
  H 3.679495 0.000349 2.383241
  H 1.526175 0.460163 3.571427
  H 1.524825 2.103224 2.908393
  H 3.692825 0.924932 4.708420
  H 2.452584 2.072317 5.197040
  H 3.691239 2.561166 4.047981
  H 2.451585 -0.479139 -1.131413
  H 5.189636 0.064654 0.229730
  H 5.164470 -2.760237 -4.492573
  H 5.166927 -1.139083 -5.139200
  H 3.045813 -0.629420 -3.899241
  H 3.043241 -2.270967 -3.244564
  H 7.375304 -0.991525 -2.404042
 29
 133.720953
  C 0.837689 0.292144 0.787380
  C 2.293239 0.336606 0.896406
  C 2.988101 0.821466 2.096417
  C 2.136019 1.295498 3.272556
  C 3.028843 1.759212 4.419719
  C 3.037625 -0.117580 -0.230783
  C 4.361364 -0.168738 -0.356516
  C 5.649943 -1.297505 -3.178299
  C 4.882764 -1.766346 -4.357377
  C 3.372429 -1.685120 -4.159859
  H 2.860315 -2.038526 -5.048106
  O 6.933827 -1.346678 -3.297509
  H 0.322861 0.649111 1.672312
  H 0.518971 -0.730547 0.569304
  H 0.518177 0.876687 -0.079297
  H 3.655665 1.637525 1.794850
  H 3.657062 0.025641 2.445261
  H 1.500587 0.484479 3.630838
  H 1.499402 2.127217 2.967906
  H 3.665290 0.949827 4.770322
  H 2.423669 2.096738 5.257340
  H 3.663845 2.586163 4.109852
  H 2.442165 -0.454972 -1.071007
  H 5.171083 0.091835 0.297324
  H 5.187825 -2.796414 -4.580442
  H 5.190330 -1.173335 -5.227776
  H 3.072223 -0.657498 -3.974193
  H 3.069495 -2.302091 -3.318330
  H 7.413543 -1.032412 -2.507075
 29
 134.738105
  C 0.824079 0.315682 0.844367
  C 2.271863 0.359937 0.955210
  C 2.960652 0.843999 2.153348
  C 2.105541 1.317767 3.326588
  C 2.995371 1.782143 4.475967
  C 3.017881 -0.094384 -0.170723
  C 4.344926 -0.146212 -0.297446
  C 5.679046 -1.330887 -3.262419
  C 4.903139 -1.796332 -4.433342
  C 3.398787 -1.709594 -4.220271
  H 2.873817 -2.061783 -5.105968
  O 6.966042 -1.386610 -3.399971
  H 0.307500 0.672387 1.727189
  H 0.507060 -0.705778 0.624268
  H 0.507353 0.897956 -0.023326
  H 3.629384 1.659101 1.853222
  H 3.629790 0.049327 2.503237
  H 1.469498 0.506464 3.683489
  H 1.469352 2.149325 3.019994
  H 3.631166 0.973223 4.828642
  H 2.387938 2.119561 5.311721
  H 3.630819 2.609348 4.167769
  H 2.421232 -0.433112 -1.014981
  H 5.151195 0.113499 0.354792
  H 5.202024 -2.826246 -4.658499
  H 5.203841 -1.204024 -5.304796
  H 3.105669 -0.682260 -4.030424
  H 3.103571 -2.324291 -3.376299
  H 7.457374 -1.071976 -2.610832
