 22
 0.000000
  C 0.958643 0.147265 0.457345
  C 2.417008 0.122398 0.372223
  H 3.020189 0.461146 1.200678
  C 3.015470 -0.342078 -0.777849
  C 4.402831 -0.415368 -0.962108
  C 5.074875 -0.863253 -2.079347
  C 4.600198 -1.375044 -3.371584
  C 3.124604 -1.503363 -3.714635
  C 2.958486 -2.060967 -5.126844
  H 6.155968 -0.857824 -2.045323
  H 0.586518 0.530405 1.401407
  H 0.572273 -0.861701 0.293401
  H 0.550157 0.744659 -0.361266
  H 2.360844 -0.665489 -1.569857
  H 5.021657 -0.083730 -0.136515
  H 5.077924 -2.357199 -3.498050
  H 5.086128 -0.751609 -4.135865
  H 2.640586 -0.526380 -3.673965
  H 2.632370 -2.184401 -3.018749
  H 3.419770 -1.406235 -5.862650
  H 1.904469 -2.154053 -5.375410
  H 3.411784 -3.045710 -5.214347
 22
 0.177451
  C 0.981104 0.050323 0.639361
  C 2.390117 0.222490 0.307296
  H 3.047071 0.651102 1.052863
  C 2.929661 -0.216779 -0.879802
  C 4.320271 -0.271382 -1.067151
  C 5.014393 -0.922108 -2.062948
  C 4.590876 -1.517352 -3.327813
  C 3.153007 -1.429769 -3.813198
  C 3.027892 -1.984952 -5.229738
  H 6.080183 -1.023579 -1.892164
  H 0.699974 0.561605 1.553222
  H 0.793408 -1.022170 0.765437
  H 0.334938 0.347943 -0.187431
  H 2.263923 -0.604043 -1.633423
  H 4.917208 0.149949 -0.266968
  H 4.911044 -2.570346 -3.312671
  H 5.252870 -1.089673 -4.097414
  H 2.819059 -0.390880 -3.812639
  H 2.501214 -2.012853 -3.160442
  H 3.638408 -1.417817 -5.928693
  H 1.996244 -1.930016 -5.567696
  H 3.338968 -3.026325 -5.271064
 22
 3.990561
  C 1.059204 -0.112834 0.654181
  C 2.398259 0.314686 0.264107
  H 3.044125 0.748516 1.016695
  C 2.922676 0.005957 -0.969805
  C 4.312605 -0.129784 -1.123565
  C 4.943963 -0.985019 -1.996923
  C 4.523861 -1.594562 -3.257200
  C 3.148561 -1.332327 -3.850046
  C 3.031939 -1.959351 -5.237291
  H 5.963261 -1.242744 -1.730026
  H 0.774857 0.232321 1.641600
  H 1.076049 -1.208867 0.644938
  H 0.310051 0.165233 -0.088674
  H 2.253410 -0.321231 -1.749010
  H 4.918929 0.280957 -0.324772
  H 4.700617 -2.676509 -3.187573
  H 5.283917 -1.277642 -3.989771
  H 2.970459 -0.259180 -3.933123
  H 2.379316 -1.772972 -3.213390
  H 3.753082 -1.525049 -5.926293
  H 2.038445 -1.792077 -5.645807
  H 3.201713 -3.033254 -5.196693
 22
 9.420971
  C 1.147762 -0.232619 0.621870
  C 2.429219 0.353867 0.244638
  H 3.078990 0.729540 1.028485
  C 2.938801 0.168555 -1.021295
  C 4.323091 -0.049388 -1.150609
  C 4.855388 -1.055812 -1.924512
  C 4.458558 -1.627251 -3.212236
  C 3.123971 -1.276072 -3.858048
  C 3.014563 -1.910488 -5.240251
  H 5.807663 -1.440209 -1.573447
  H 0.867954 -0.022301 1.647788
  H 1.291995 -1.311341 0.491922
  H 0.349586 0.032769 -0.065637
  H 2.269202 -0.137086 -1.808418
  H 4.944013 0.335558 -0.353952
  H 4.577539 -2.713300 -3.160717
  H 5.260624 -1.322781 -3.905122
  H 3.026547 -0.194597 -3.957789
  H 2.298863 -1.653982 -3.246162
  H 3.762502 -1.507630 -5.919437
  H 2.033299 -1.715582 -5.670442
  H 3.148430 -2.986945 -5.184445
 22
 15.877174
  C 1.293697 -0.429380 0.617799
  C 2.438329 0.382091 0.218883
  H 3.072400 0.789470 0.998435
  C 2.926826 0.291578 -1.061439
  C 4.302994 0.039444 -1.178935
  C 4.764326 -1.043342 -1.886523
  C 4.336485 -1.679500 -3.136783
  C 3.105620 -1.186352 -3.887539
  C 3.008953 -1.855278 -5.257613
  H 5.693267 -1.463731 -1.509690
  H 1.045400 -0.325696 1.669730
  H 1.619415 -1.458232 0.404128
  H 0.419852 -0.262573 -0.007351
  H 2.251344 0.053492 -1.871193
  H 4.951835 0.449032 -0.418652
  H 4.270106 -2.762864 -2.974511
  H 5.204097 -1.574182 -3.801176
  H 3.150538 -0.106141 -4.023855
  H 2.201492 -1.436466 -3.326449
  H 3.874760 -1.617605 -5.869808
  H 2.123780 -1.513277 -5.783378
  H 2.942741 -2.936520 -5.161767
 22
 24.471810
  C 1.426906 -0.586077 0.474133
  C 2.494556 0.380820 0.200164
  H 3.126021 0.693027 1.022432
  C 2.969118 0.470609 -1.094193
  C 4.338993 0.126707 -1.177587
  C 4.670058 -1.046902 -1.807027
  C 4.277270 -1.643536 -3.090332
  C 3.063589 -1.130539 -3.854467
  C 2.913100 -1.873875 -5.179288
  H 5.542300 -1.543333 -1.386583
  H 1.181287 -0.661537 1.525465
  H 1.864622 -1.530926 0.112873
  H 0.536020 -0.423513 -0.130578
  H 2.304525 0.264683 -1.919255
  H 4.980863 0.464990 -0.374845
  H 4.202296 -2.730853 -2.969354
  H 5.162963 -1.506588 -3.725916
  H 3.165986 -0.066397 -4.058301
  H 2.157208 -1.299067 -3.269145
  H 3.793766 -1.737196 -5.808519
  H 2.051658 -1.504846 -5.724896
  H 2.774847 -2.941771 -5.013688
 22
 36.381565
  C 1.638553 -0.726376 0.364797
  C 2.526170 0.430773 0.168901
  H 3.107731 0.787595 1.001056
  C 2.966799 0.613878 -1.145178
  C 4.327661 0.194214 -1.190073
  C 4.523859 -1.070940 -1.712715
  C 4.143698 -1.701677 -2.995893
  C 3.004545 -1.127352 -3.810239
  C 2.891367 -1.844296 -5.151799
  H 5.360001 -1.603632 -1.257936
  H 1.424941 -0.939217 1.402039
  H 2.251481 -1.531832 -0.098096
  H 0.721752 -0.695721 -0.225935
  H 2.302308 0.443937 -1.980181
  H 5.001628 0.530003 -0.404119
  H 3.974382 -2.780126 -2.833979
  H 5.055247 -1.655356 -3.598519
  H 3.169555 -0.065921 -3.993439
  H 2.058193 -1.256663 -3.278667
  H 3.813717 -1.733884 -5.721816
  H 2.072398 -1.427133 -5.736516
  H 2.693363 -2.898234 -5.021501
 22
 48.280220
  C 1.764587 -0.861659 0.145657
  C 2.549569 0.383164 0.103022
  H 3.025499 0.745078 1.017469
  C 3.033759 0.696244 -1.144036
  C 4.373260 0.236966 -1.162648
  C 4.461827 -1.076667 -1.635918
  C 4.114308 -1.683995 -2.927788
  C 3.001059 -1.061293 -3.766464
  C 2.760043 -1.868404 -5.026508
  H 5.273320 -1.623230 -1.153891
  H 1.475338 -1.167560 1.148957
  H 2.514392 -1.547766 -0.314233
  H 0.917696 -0.886735 -0.526688
  H 2.404410 0.621002 -2.038138
  H 5.030638 0.507553 -0.363747
  H 3.929433 -2.757587 -2.780285
  H 5.028262 -1.635663 -3.525800
  H 3.239454 -0.034843 -4.027807
  H 2.067921 -1.067116 -3.176419
  H 3.631422 -1.823113 -5.681574
  H 1.902011 -1.497830 -5.565011
  H 2.588623 -2.921068 -4.787192
 22
 65.950545
  C 1.947762 -0.842340 0.164361
  C 2.638367 0.445966 0.146776
  H 3.203550 0.776317 1.008805
  C 2.973578 0.788943 -1.160675
  C 4.261677 0.220391 -1.170703
  C 4.235040 -1.149130 -1.532533
  C 3.970599 -1.754811 -2.851602
  C 2.907479 -1.128639 -3.754611
  C 2.846184 -1.853959 -5.101503
  H 5.036568 -1.686277 -1.027786
  H 1.828235 -1.292100 1.133896
  H 2.761905 -1.437480 -0.464310
  H 1.072250 -0.937444 -0.464343
  H 2.265209 0.641319 -1.971018
  H 5.021767 0.548452 -0.478840
  H 3.740041 -2.816110 -2.706573
  H 4.929608 -1.743807 -3.393205
  H 3.136063 -0.079651 -3.935854
  H 1.923340 -1.207825 -3.279059
  H 3.791195 -1.779171 -5.629242
  H 2.076227 -1.418490 -5.731763
  H 2.612431 -2.912898 -4.966313
 22
 78.679577
  C 2.020332 -0.819581 0.145428
  C 2.654517 0.476830 0.154107
  H 3.237346 0.802182 1.000154
  C 2.934509 0.817339 -1.179971
  C 4.201269 0.233954 -1.169188
  C 4.151752 -1.217802 -1.468624
  C 3.926373 -1.810655 -2.820268
  C 2.886545 -1.160422 -3.728459
  C 2.854333 -1.853746 -5.087258
  H 4.960944 -1.736519 -0.958994
  H 1.952000 -1.332391 1.093681
  H 3.048738 -1.453910 -0.654228
  H 1.168289 -0.979643 -0.502412
  H 2.212111 0.635715 -1.960887
  H 4.984870 0.575729 -0.507905
  H 3.683141 -2.870004 -2.690991
  H 4.890330 -1.802752 -3.347084
  H 3.124203 -0.107484 -3.882350
  H 1.895971 -1.243722 -3.278622
  H 3.816598 -1.776415 -5.588535
  H 2.104876 -1.396861 -5.728791
  H 2.608796 -2.908352 -4.981026
 22
 65.382996
  C 1.871194 -0.686523 0.211745
  C 2.557521 0.504140 0.196269
  H 3.147127 0.822066 1.035603
  C 2.961045 0.733254 -1.128947
  C 4.208007 0.173157 -1.124137
  C 4.214550 -1.278806 -1.476105
  C 4.018786 -1.810122 -2.888684
  C 2.920654 -1.203926 -3.710520
  C 2.836585 -1.887841 -5.077055
  H 5.093493 -1.764623 -1.031004
  H 1.768772 -1.188291 1.156628
  H 3.302930 -1.559346 -0.833974
  H 1.103028 -0.911725 -0.495252
  H 2.248720 0.565767 -1.960161
  H 4.962356 0.504448 -0.424073
  H 3.859285 -2.869227 -2.804360
  H 4.973547 -1.707408 -3.436559
  H 3.092805 -0.132830 -3.863200
  H 1.962217 -1.347200 -3.213106
  H 3.757437 -1.806757 -5.622406
  H 2.046593 -1.432049 -5.678249
  H 2.601662 -2.954679 -4.952863
 22
 48.292055
  C 1.678217 -0.534769 0.451013
  C 2.471920 0.538171 0.253607
  H 3.082814 0.947675 1.044815
  C 2.919253 0.587866 -1.109494
  C 4.206058 0.065551 -1.166460
  C 4.332945 -1.364185 -1.517283
  C 4.106150 -1.873135 -2.951222
  C 2.958459 -1.253818 -3.740507
  C 2.876808 -1.874152 -5.134304
  H 5.273752 -1.762064 -1.141450
  H 1.518542 -0.894299 1.456080
  H 3.503390 -1.752325 -0.875245
  H 0.968329 -0.878789 -0.281677
  H 2.192939 0.365071 -1.881688
  H 4.987914 0.500516 -0.555355
  H 3.954291 -2.953251 -2.887765
  H 5.031789 -1.715738 -3.509185
  H 3.115459 -0.181718 -3.854370
  H 2.008140 -1.433882 -3.235692
  H 3.809942 -1.731545 -5.676025
  H 2.080506 -1.410469 -5.709290
  H 2.676406 -2.941380 -5.073905
 22
 36.812965
  C 1.472288 -0.291286 0.578997
  C 2.474630 0.569161 0.302449
  H 3.100535 0.992622 1.073966
  C 2.956486 0.457975 -1.036291
  C 4.239503 -0.054775 -1.127588
  C 4.400391 -1.464236 -1.555067
  C 4.227619 -1.850882 -3.040754
  C 2.962830 -1.373714 -3.741084
  C 2.914787 -1.905166 -5.172118
  H 5.364486 -1.841419 -1.214136
  H 1.220824 -0.538225 1.598114
  H 3.595387 -1.941722 -0.969588
  H 0.821909 -0.681962 -0.184202
  H 2.226266 0.224333 -1.803661
  H 5.027627 0.373900 -0.518348
  H 4.266137 -2.940444 -3.084301
  H 5.096380 -1.470199 -3.581005
  H 2.938708 -0.285247 -3.784860
  H 2.079882 -1.738807 -3.214117
  H 3.775400 -1.561078 -5.740999
  H 2.016065 -1.559418 -5.674825
  H 2.912353 -2.993615 -5.181973
 22
 28.802557
  C 1.368445 -0.115115 0.774522
  C 2.425766 0.596040 0.324970
  H 3.116144 1.067276 1.011575
  C 2.869672 0.258705 -0.983874
  C 4.175177 -0.159879 -1.129977
  C 4.455734 -1.532060 -1.591533
  C 4.308664 -1.880024 -3.092034
  C 3.025261 -1.444624 -3.783699
  C 3.025446 -1.904918 -5.239582
  H 5.455666 -1.826060 -1.279584
  H 1.131650 -0.166144 1.823590
  H 3.710852 -2.124216 -1.027636
  H 0.685640 -0.600959 0.095742
  H 2.119269 -0.026523 -1.710928
  H 4.960663 0.365381 -0.599492
  H 4.409606 -2.962026 -3.173386
  H 5.158163 -1.427075 -3.609158
  H 2.932856 -0.360199 -3.768451
  H 2.160596 -1.893179 -3.290121
  H 3.835772 -1.435992 -5.792282
  H 2.088527 -1.639797 -5.720582
  H 3.147649 -2.984050 -5.305472
 22
 25.972376
  C 1.294196 0.018882 0.737020
  C 2.423245 0.631374 0.326870
  H 3.079525 1.114776 1.038118
  C 2.928011 0.232226 -0.951518
  C 4.226661 -0.240024 -1.011950
  C 4.519595 -1.562932 -1.622839
  C 4.336137 -1.807224 -3.131607
  C 2.991642 -1.493216 -3.781163
  C 2.993337 -1.936431 -5.240814
  H 5.520101 -1.880965 -1.347591
  H 0.997159 0.030002 1.773084
  H 3.792474 -2.194273 -1.078997
  H 0.659177 -0.502382 0.041501
  H 2.204563 -0.123016 -1.675177
  H 4.973126 0.183933 -0.353443
  H 4.569429 -2.860766 -3.297246
  H 5.099453 -1.212873 -3.637757
  H 2.793331 -0.421995 -3.754351
  H 2.189393 -2.028379 -3.272419
  H 3.754716 -1.403077 -5.805274
  H 2.029209 -1.735988 -5.699040
  H 3.192740 -3.003093 -5.322798
