 10
 0.000000
  H 3.419309 -0.343735 -0.805627
  C 4.472906 -0.413204 -0.978851
  C 5.132414 -0.867699 -2.111643
  C 4.618673 -1.388937 -3.410716
  H 3.569972 -1.467842 -3.607948
  O 6.457488 -0.870547 -2.119086
  H 5.100515 -0.083792 -0.158214
  H 5.068655 -2.379864 -3.541239
  H 5.069011 -0.763340 -4.190016
  H 6.834017 -0.535875 -1.285013
 10
 0.000000
  H 3.398307 -0.343326 -0.798600
  C 4.542528 -0.418723 -0.996132
  C 5.158767 -0.870272 -2.120050
  C 4.628575 -1.389738 -3.413284
  H 3.577329 -1.463715 -3.599035
  O 6.388514 -0.873283 -2.125638
  H 5.172770 -0.090325 -0.177025
  H 5.072496 -2.383043 -3.548150
  H 5.073513 -0.766568 -4.197906
  H 6.730160 -0.515842 -1.232534
 10
 0.000000
  H 3.364895 -0.341143 -0.784954
  C 4.609710 -0.421871 -1.008952
  C 5.188062 -0.873466 -2.130591
  C 4.639437 -1.390920 -3.417012
  H 3.585523 -1.459141 -3.589926
  O 6.327076 -0.878340 -2.137786
  H 5.241799 -0.094459 -0.190799
  H 5.076244 -2.386944 -3.556492
  H 5.078410 -0.770702 -4.207569
  H 6.632137 -0.496529 -1.180981
 10
 0.000000
  H 3.320017 -0.336495 -0.767495
  C 4.676254 -0.423423 -1.016596
  C 5.220705 -0.877749 -2.142792
  C 4.651104 -1.392411 -3.421277
  H 3.594413 -1.454035 -3.579544
  O 6.270845 -0.885447 -2.154782
  H 5.309177 -0.096611 -0.198810
  H 5.079691 -2.391340 -3.566207
  H 5.083078 -0.775344 -4.218277
  H 6.535940 -0.477191 -1.130627
 10
 0.000000
  H 3.265016 -0.327759 -0.747625
  C 4.740707 -0.422928 -1.018192
  C 5.255393 -0.883244 -2.156295
  C 4.662342 -1.394630 -3.425475
  H 3.602867 -1.448932 -3.567251
  O 6.221306 -0.894450 -2.175803
  H 5.373707 -0.096008 -0.200512
  H 5.081630 -2.396621 -3.576410
  H 5.086186 -0.781067 -4.229527
  H 6.444644 -0.457959 -1.083242
 10
 0.000000
  H 3.196674 -0.318681 -0.724806
  C 4.803306 -0.422593 -1.012922
  C 5.292208 -0.889830 -2.171377
  C 4.674163 -1.396268 -3.430651
  H 3.612065 -1.443772 -3.554289
  O 6.177130 -0.903640 -2.199974
  H 5.434926 -0.095256 -0.194378
  H 5.084445 -2.400668 -3.589635
  H 5.087985 -0.784678 -4.241311
  H 6.355036 -0.437962 -1.035435
 10
 0.000000
  H 3.119723 -0.305051 -0.699338
  C 4.863751 -0.419940 -1.001795
  C 5.329391 -0.897301 -2.187661
  C 4.684400 -1.398503 -3.435538
  H 3.619868 -1.438607 -3.539426
  O 6.138436 -0.914086 -2.226087
  H 5.493623 -0.091751 -0.182298
  H 5.084663 -2.405483 -3.602811
  H 5.087218 -0.789241 -4.253317
  H 6.269271 -0.418434 -0.989238
 10
 0.000000
  H 3.040347 -0.290841 -0.672490
  C 4.922348 -0.415655 -0.986398
  C 5.365904 -0.904586 -2.203903
  C 4.693335 -1.400346 -3.439415
  H 3.626727 -1.433069 -3.522752
  O 6.100992 -0.923889 -2.251150
  H 5.549864 -0.086420 -0.165572
  H 5.083295 -2.409804 -3.615109
  H 5.084402 -0.793302 -4.264356
  H 6.180350 -0.399864 -0.944961
 10
 0.000000
  H 2.970300 -0.278899 -0.646845
  C 4.980693 -0.410095 -0.969376
  C 5.400728 -0.910456 -2.217948
  C 4.700620 -1.400943 -3.440308
  H 3.632356 -1.426399 -3.502808
  O 6.058092 -0.931341 -2.271298
  H 5.605495 -0.079727 -0.146992
  H 5.080150 -2.412810 -3.624087
  H 5.079549 -0.796192 -4.272409
  H 6.078038 -0.383567 -0.905867
 10
 0.000000
  H 2.917911 -0.269724 -0.625925
  C 5.037608 -0.403729 -0.952404
  C 5.432247 -0.914167 -2.227238
  C 4.706174 -1.399541 -3.436577
  H 3.636733 -1.417636 -3.479391
  O 6.005796 -0.935499 -2.282371
  H 5.659152 -0.072384 -0.128001
  H 5.075221 -2.413848 -3.627500
  H 5.073816 -0.797318 -4.275404
  H 5.957199 -0.371307 -0.875192
 10
 0.000000
  H 2.861409 -0.259211 -0.600360
  C 5.087072 -0.394947 -0.930198
  C 5.458795 -0.917175 -2.235025
  C 4.707624 -1.397408 -3.431126
  H 3.637448 -1.408143 -3.454718
  O 5.958077 -0.938608 -2.290622
  H 5.705257 -0.062671 -0.103693
  H 5.066141 -2.414120 -3.628688
  H 5.064224 -0.797720 -4.276388
  H 5.844513 -0.360470 -0.847802
 10
 0.000000
  H 2.567673 -0.212553 -0.478564
  C 5.017266 -0.364675 -0.857998
  C 5.440927 -0.931393 -2.270459
  C 4.680686 -1.409080 -3.460922
  H 3.610799 -1.415511 -3.477485
  O 6.107299 -0.968500 -2.363140
  H 5.636015 -0.032948 -0.031586
  H 5.033840 -2.427490 -3.659941
  H 5.034134 -0.810996 -4.308792
  H 6.117634 -0.321255 -0.749966
