 20
 0.000000
  C 0.958930 -0.015885 -0.004542
  C 2.455272 0.000463 0.011264
  C 3.169792 0.813169 0.796742
  C 4.607814 0.829080 0.812118
  C 5.327146 1.646184 1.601856
  C 6.765911 1.660276 1.615473
  C 7.482888 2.471413 2.399434
  C 8.972939 2.501018 2.428048
  H 0.598044 -0.755122 -0.719011
  H 0.563202 0.955678 -0.300012
  H 0.563201 -0.278096 0.976520
  H 2.954756 -0.689714 -0.655800
  H 2.658077 1.499498 1.460085
  H 5.112343 0.140219 0.146337
  H 4.823185 2.335213 2.267800
  H 7.273067 0.972265 0.950509
  H 6.984275 3.162525 3.067397
  H 9.408038 1.783424 1.734489
  H 9.331820 2.268165 3.431840
  H 9.331820 3.496296 2.161143
 20
 13.513250
  C 0.796109 -0.050533 -0.038028
  C 2.462547 -0.044181 -0.031884
  C 3.217173 0.827168 0.810275
  C 4.647010 0.842978 0.825553
  C 5.370865 1.659491 1.614720
  C 6.806762 1.677297 1.631923
  C 7.526840 2.486021 2.413551
  C 9.015606 2.518434 2.444878
  H 0.443072 -0.788000 -0.750792
  H 0.425591 0.927841 -0.325890
  H 0.425588 -0.304909 0.949579
  H 2.953732 -0.732327 -0.696986
  H 2.695047 1.507267 1.467594
  H 5.152346 0.154487 0.160128
  H 4.866173 2.348203 2.280356
  H 7.312246 0.988705 0.966398
  H 7.027869 3.176820 3.081212
  H 9.446047 1.800007 1.750518
  H 9.375545 2.288452 3.448487
  H 9.375546 3.513625 2.180849
 20
 40.564399
  C 0.624232 -0.046277 -0.033916
  C 2.524471 -0.090434 -0.076591
  C 3.259293 0.811013 0.794666
  C 4.684807 0.834999 0.817847
  C 5.401526 1.652846 1.608302
  C 6.832298 1.683912 1.638307
  C 7.547071 2.495613 2.422815
  C 9.031539 2.540204 2.465906
  H 0.319090 -0.782087 -0.745087
  H 0.367150 0.954439 -0.311995
  H 0.367146 -0.290123 0.975693
  H 2.956933 -0.785039 -0.747940
  H 2.703709 1.469848 1.431434
  H 5.200244 0.152198 0.157917
  H 4.887131 2.335868 2.268435
  H 7.343062 0.998306 0.975671
  H 7.038496 3.181270 3.085494
  H 9.462675 1.825522 1.775170
  H 9.387610 2.317308 3.470586
  H 9.387581 3.536634 2.208928
 20
 70.006002
  C 0.424502 -0.035794 -0.023795
  C 2.609204 -0.114375 -0.099733
  C 3.315365 0.777518 0.762281
  C 4.734826 0.815141 0.798656
  C 5.431999 1.641749 1.597582
  C 6.873659 1.688470 1.642757
  C 7.568177 2.507676 2.434545
  C 9.049729 2.568485 2.493293
  H 0.164710 -0.778300 -0.741413
  H 0.243505 0.976952 -0.307933
  H 0.243503 -0.285256 0.998040
  H 2.988563 -0.829013 -0.790419
  H 2.748872 1.440472 1.403036
  H 5.266288 0.131523 0.137941
  H 4.896119 2.326380 2.259269
  H 7.405154 1.002208 0.979497
  H 7.040140 3.192603 3.096539
  H 9.499419 1.853786 1.802547
  H 9.397918 2.347886 3.505058
  H 9.398034 3.572476 2.238312
 20
 94.388537
  C 0.199531 -0.029256 -0.017443
  C 2.691103 -0.126410 -0.111370
  C 3.368712 0.737898 0.723994
  C 4.800873 0.792707 0.776980
  C 5.477793 1.627771 1.584059
  C 6.914711 1.692801 1.646796
  C 7.587842 2.519367 2.445690
  C 9.077692 2.601103 2.524811
  H -0.006196 -0.784339 -0.747235
  H 0.080077 0.990964 -0.307069
  H 0.080095 -0.283983 1.012055
  H 3.018466 -0.856965 -0.817465
  H 2.815284 1.401825 1.365678
  H 5.339301 0.122973 0.129660
  H 4.931834 2.300497 2.234276
  H 7.456079 1.020185 0.996710
  H 7.043943 3.193883 3.097578
  H 9.545642 1.895675 1.843059
  H 9.415671 2.385689 3.540431
  H 9.415735 3.608676 2.274962
 20
 110.942314
  C -0.017633 -0.019176 -0.007826
  C 2.760250 -0.144977 -0.129269
  C 3.428851 0.700053 0.687413
  C 4.870562 0.771000 0.755944
  C 5.526628 1.614929 1.571648
  C 6.952736 1.695832 1.650252
  C 7.607293 2.534626 2.460891
  C 9.087312 2.634468 2.556880
  H -0.176596 -0.777022 -0.740245
  H -0.063774 1.002477 -0.300500
  H -0.063844 -0.276814 1.023215
  H 3.032415 -0.887482 -0.846864
  H 2.881963 1.372182 1.337022
  H 5.427363 0.097808 0.105387
  H 4.967943 2.280415 2.214699
  H 7.511068 1.027145 1.003974
  H 7.049049 3.200445 3.104499
  H 9.573328 1.932270 1.877953
  H 9.415214 2.423335 3.576812
  H 9.414711 3.646872 2.311047
 20
 121.734184
  C -0.233855 -0.025029 -0.013508
  C 2.820327 -0.155934 -0.139861
  C 3.483400 0.678211 0.666339
  C 4.926700 0.761545 0.746901
  C 5.567818 1.610390 1.567318
  C 6.997071 1.703947 1.657700
  C 7.636189 2.547665 2.473154
  C 9.109587 2.659872 2.581607
  H -0.349232 -0.789929 -0.752782
  H -0.226302 0.996401 -0.309336
  H -0.226376 -0.285921 1.017645
  H 3.057950 -0.903070 -0.861957
  H 2.940231 1.352241 1.317776
  H 5.490174 0.093805 0.101528
  H 4.998949 2.270851 2.205664
  H 7.567735 1.038706 1.014745
  H 7.065948 3.209869 3.113181
  H 9.606307 1.964562 1.909592
  H 9.428581 2.452842 3.600940
  H 9.428762 3.672045 2.340039
 20
 128.186233
  C -0.458967 -0.050467 -0.037888
  C 2.871014 -0.153891 -0.137934
  C 3.530810 0.670717 0.659045
  C 4.977289 0.762094 0.747305
  C 5.609368 1.613829 1.570483
  C 7.039141 1.714565 1.667640
  C 7.669445 2.560537 2.485291
  C 9.144950 2.680658 2.601896
  H -0.532215 -0.815821 -0.777642
  H -0.405838 0.970857 -0.335007
  H -0.405795 -0.312674 0.993081
  H 3.084294 -0.907903 -0.866726
  H 2.991410 1.342862 1.308704
  H 5.544177 0.098668 0.106038
  H 5.031918 2.274524 2.209099
  H 7.613989 1.054344 1.029549
  H 7.093675 3.219493 3.122015
  H 9.647227 1.989792 1.934394
  H 9.459757 2.474972 3.623136
  H 9.460243 3.694205 2.361524
 20
 131.758001
  C -0.694552 -0.104398 -0.090323
  C 2.910405 -0.130116 -0.114927
  C 3.571629 0.684209 0.672101
  C 5.021388 0.776190 0.761028
  C 5.652340 1.627034 1.583376
  C 7.084084 1.727841 1.681058
  C 7.714347 2.573679 2.498567
  C 9.193982 2.694893 2.615436
  H -0.740645 -0.874006 -0.834152
  H -0.611375 0.915361 -0.387218
  H -0.611407 -0.366438 0.939524
  H 3.109304 -0.880771 -0.840401
  H 3.034108 1.362582 1.327686
  H 5.586582 0.112091 0.119269
  H 5.074281 2.287916 2.222035
  H 7.657439 1.069817 1.045119
  H 7.140042 3.230396 3.133401
  H 9.699352 2.001953 1.945552
  H 9.509321 2.489723 3.637396
  H 9.509294 3.710153 2.375460
 20
 133.608072
  C -0.930777 -0.169936 -0.152719
  C 2.947642 -0.097750 -0.083482
  C 3.608923 0.704805 0.691973
  C 5.062784 0.795856 0.779691
  C 5.698743 1.646055 1.601210
  C 7.128029 1.743469 1.695159
  C 7.760905 2.588055 2.511282
  C 9.238692 2.707157 2.626154
  H -0.971518 -0.933834 -0.890941
  H -0.818672 0.851843 -0.450556
  H -0.818651 -0.432174 0.876911
  H 3.135501 -0.855979 -0.816253
  H 3.076740 1.382412 1.346901
  H 5.616127 0.137744 0.143613
  H 5.127807 2.303513 2.236663
  H 7.710596 1.070706 1.044911
  H 7.189471 3.244059 3.145366
  H 9.739828 2.015785 1.957592
  H 9.558064 2.500643 3.654703
  H 9.555083 3.720636 2.386142
 20
 133.988205
  C -1.148108 -0.233697 -0.215638
  C 2.980396 -0.079729 -0.066363
  C 3.650177 0.724116 0.710531
  C 5.102865 0.812242 0.795777
  C 5.738515 1.661014 1.616090
  C 7.171435 1.757498 1.709475
  C 7.806243 2.601421 2.525068
  C 9.289697 2.718786 2.638307
  H -1.225170 -1.000143 -0.956454
  H -1.042587 0.784239 -0.514259
  H -1.042431 -0.497953 0.814556
  H 3.162941 -0.833391 -0.794703
  H 3.119462 1.407007 1.370451
  H 5.662672 0.146381 0.152323
  H 5.165747 2.322847 2.255644
  H 7.741956 1.096939 1.071119
  H 7.234514 3.260267 3.161820
  H 9.790977 2.025343 1.967969
  H 9.607487 2.512754 3.659544
  H 9.606744 3.730924 2.397996
 20
 134.150451
  C -1.371679 -0.318332 -0.294207
  C 3.005753 -0.046375 -0.032844
  C 3.683508 0.754858 0.741170
  C 5.136457 0.837101 0.820073
  C 5.779453 1.683527 1.637856
  C 7.211794 1.773689 1.725162
  C 7.853209 2.614752 2.537676
  C 9.338519 2.726834 2.643792
  H -1.509763 -1.080109 -1.029563
  H -1.261884 0.705632 -0.595453
  H -1.262481 -0.581901 0.727872
  H 3.177877 -0.801968 -0.763084
  H 3.160260 1.437940 1.401373
  H 5.691628 0.168256 0.173711
  H 5.213226 2.346870 2.278980
  H 7.779172 1.107964 1.081664
  H 7.285279 3.277538 3.179008
  H 9.833161 2.033583 1.972045
  H 9.661901 2.518980 3.666518
  H 9.655981 3.732943 2.403722
 20
 134.309510
  C -1.594668 -0.387343 -0.365247
  C 3.038492 -0.025747 -0.014554
  C 3.714577 0.770654 0.755063
  C 5.169995 0.852395 0.834365
  C 5.813555 1.697420 1.651008
  C 7.246826 1.785691 1.737428
  C 7.890353 2.627349 2.550834
  C 9.368128 2.735851 2.655284
  H -1.780600 -1.145345 -1.094865
  H -1.466470 0.627422 -0.667745
  H -1.465321 -0.657321 0.661240
  H 3.193752 -0.786011 -0.749025
  H 3.188205 1.453355 1.414440
  H 5.722200 0.187663 0.192480
  H 5.246516 2.364469 2.295211
  H 7.811477 1.121538 1.095959
  H 7.322189 3.293148 3.194355
  H 9.865644 2.037729 1.976645
  H 9.691127 2.531639 3.676942
  H 9.686443 3.744291 2.413762
