 22
 0.000000
  C 1.002704 0.053235 0.192260
  C 2.505027 0.054613 0.167814
  C 3.295722 -0.017816 1.451442
  C 2.501272 -0.091270 2.753145
  C 3.439174 -0.158957 3.952789
  C 3.119048 0.121738 -1.021745
  H 2.513005 0.172195 -1.915940
  C 4.541588 0.135037 -1.257410
  C 5.076850 0.203689 -2.474149
  H 6.138005 0.212741 -2.634553
  H 0.601411 -0.003489 1.197462
  H 0.619737 -0.796628 -0.371174
  H 0.619740 0.961092 -0.271986
  H 3.946655 0.859787 1.505790
  H 3.946662 -0.895960 1.406720
  H 1.864129 -0.978246 2.753086
  H 1.864116 0.790084 2.852872
  H 4.075626 -1.039397 3.893087
  H 2.870642 -0.211197 4.878511
  H 4.075620 0.722616 3.992504
  H 5.194601 0.086439 -0.396143
  H 4.471139 0.253746 -3.361231
 22
 6.827865
  C 1.022207 0.054403 0.171563
  C 2.524792 0.056634 0.131995
  C 3.325884 -0.015139 1.404019
  C 2.458621 -0.096604 2.847673
  C 3.408054 -0.163503 4.033358
  C 3.128677 0.124086 -1.063346
  H 2.513555 0.174274 -1.952778
  C 4.549815 0.138088 -1.311464
  C 5.074533 0.206965 -2.532203
  H 6.136734 0.216519 -2.701546
  H 0.631778 -0.002553 1.180879
  H 0.633926 -0.795679 -0.388531
  H 0.633927 0.962102 -0.289339
  H 3.974162 0.861665 1.457810
  H 3.974167 -0.892426 1.358833
  H 1.824310 -0.982587 2.848482
  H 1.824300 0.783662 2.948151
  H 4.044417 -1.043559 3.966853
  H 2.848878 -0.216065 4.964779
  H 4.044413 0.718454 4.066271
  H 5.209684 0.089816 -0.455990
  H 4.459488 0.256789 -3.415162
 22
 21.620450
  C 1.047991 0.054594 0.168192
  C 2.549558 0.058154 0.105077
  C 3.359980 -0.012328 1.354217
  C 2.409641 -0.101453 2.933634
  C 3.371549 -0.166866 4.092984
  C 3.140213 0.125961 -1.096560
  H 2.513200 0.175745 -1.978858
  C 4.559195 0.140831 -1.360091
  C 5.071241 0.210002 -2.586022
  H 6.133640 0.220142 -2.765732
  H 0.677758 -0.002782 1.184953
  H 0.650996 -0.795708 -0.386265
  H 0.650998 0.961875 -0.287084
  H 3.998512 0.862802 1.425683
  H 3.998521 -0.889943 1.326784
  H 1.782959 -0.985427 2.918400
  H 1.782954 0.778615 3.017943
  H 4.007811 -1.046568 4.018296
  H 2.822444 -0.219817 5.031340
  H 4.007800 0.715651 4.117728
  H 5.227343 0.092933 -0.511204
  H 4.444631 0.259468 -3.462670
 22
 37.910977
  C 1.068740 0.055511 0.151923
  C 2.570013 0.060062 0.071258
  C 3.394990 -0.009938 1.311842
  C 2.361064 -0.106707 3.026716
  C 3.341693 -0.171142 4.168720
  C 3.149704 0.128328 -1.138529
  H 2.513348 0.177708 -2.013660
  C 4.565440 0.143919 -1.414818
  C 5.066754 0.213337 -2.645127
  H 6.126138 0.223948 -2.833182
  H 0.715144 -0.002162 1.173951
  H 0.665226 -0.794578 -0.397804
  H 0.665227 0.962050 -0.298678
  H 4.026910 0.869765 1.405541
  H 4.026914 -0.894590 1.305985
  H 1.738612 -0.995052 2.992698
  H 1.738601 0.779827 3.092853
  H 3.977859 -1.050455 4.086737
  H 2.803462 -0.224563 5.115383
  H 3.977853 0.711815 4.186172
  H 5.240667 0.096309 -0.571043
  H 4.432054 0.262392 -3.514486
 22
 54.124686
  C 1.096597 0.055879 0.145416
  C 2.595042 0.061724 0.041819
  C 3.429696 -0.007188 1.263130
  C 2.312360 -0.111606 3.113564
  C 3.305833 -0.174757 4.232801
  C 3.158213 0.130145 -1.170722
  H 2.510682 0.179083 -2.038025
  C 4.570850 0.146559 -1.461616
  C 5.060182 0.216284 -2.697340
  H 6.118750 0.227466 -2.895511
  H 0.763680 -0.002233 1.175218
  H 0.684795 -0.794536 -0.397821
  H 0.684796 0.962011 -0.298698
  H 4.051079 0.873046 1.377826
  H 4.051088 -0.894738 1.278078
  H 1.697588 -1.000190 3.061121
  H 1.697583 0.777229 3.161418
  H 3.940982 -1.053504 4.143082
  H 2.779480 -0.228599 5.186952
  H 3.940977 0.708509 4.242502
  H 5.253711 0.099296 -0.623980
  H 4.415443 0.264982 -3.560401
 22
 68.770561
  C 1.118724 0.056332 0.137379
  C 2.617640 0.063410 0.011936
  C 3.465216 -0.005015 1.224612
  C 2.261407 -0.116979 3.208758
  C 3.269377 -0.179247 4.312340
  C 3.170662 0.132796 -1.217718
  H 2.512527 0.181311 -2.077520
  C 4.580836 0.150072 -1.523868
  C 5.056956 0.219989 -2.763006
  H 6.112630 0.231747 -2.971386
  H 0.805782 -0.002121 1.173235
  H 0.699046 -0.794331 -0.399306
  H 0.699047 0.961973 -0.300198
  H 4.077938 0.879112 1.362005
  H 4.077942 -0.898978 1.261674
  H 1.652204 -1.009109 3.136994
  H 1.652190 0.777564 3.237812
  H 3.904045 -1.058283 4.216173
  H 2.753936 -0.233549 5.274647
  H 3.904036 0.705029 4.315667
  H 5.271611 0.103168 -0.692592
  H 4.403166 0.268249 -3.618307
