 22
 0.000000
  C 0.981754 0.157107 0.442194
  C 2.452433 0.134973 0.387145
  C 3.234636 0.599647 1.543514
  H 2.612004 0.930422 2.367254
  C 3.047871 -0.333994 -0.780260
  C 4.430645 -0.417573 -0.989116
  C 5.095187 -0.865078 -2.105241
  C 4.626019 -1.383247 -3.397102
  C 3.144918 -1.510197 -3.713492
  H 3.026437 -1.912127 -4.715770
  H 6.177215 -0.848495 -2.064324
  H 0.604312 0.536622 1.386462
  H 0.584528 -0.846466 0.281053
  H 0.584448 0.770089 -0.368572
  H 3.890350 1.420262 1.246812
  H 3.890568 -0.197949 1.896951
  H 2.380594 -0.649239 -1.564896
  H 5.052336 -0.087699 -0.167175
  H 5.101351 -2.366051 -3.520671
  H 5.101381 -0.758306 -4.165593
  H 2.653008 -0.541000 -3.683196
  H 2.653126 -2.190007 -3.021937
 22
 -0.051857
  C 0.984328 0.127925 0.467519
  C 2.451737 0.121137 0.393239
  C 3.238379 0.665472 1.512821
  H 2.600508 1.026650 2.314919
  C 3.040786 -0.403089 -0.751973
  C 4.424788 -0.476648 -0.965317
  C 5.085485 -0.942324 -2.077912
  C 4.627198 -1.382610 -3.400715
  C 3.147555 -1.451791 -3.741094
  H 3.036518 -1.776408 -4.771211
  H 6.164491 -0.953044 -1.998771
  H 0.615798 0.556478 1.391630
  H 0.598481 -0.887754 0.362805
  H 0.566445 0.679935 -0.376145
  H 3.872207 1.483239 1.172907
  H 3.912360 -0.090917 1.911928
  H 2.372192 -0.784838 -1.509501
  H 5.058432 -0.118138 -0.164080
  H 5.087685 -2.363183 -3.580792
  H 5.136230 -0.735253 -4.127868
  H 2.674813 -0.476843 -3.649854
  H 2.630431 -2.173954 -3.112655
 22
 1.286871
  C 0.981701 0.109514 0.481562
  C 2.445197 0.107836 0.399091
  C 3.236747 0.708000 1.489007
  H 2.598933 1.102984 2.280215
  C 3.028581 -0.459379 -0.732012
  C 4.404920 -0.525798 -0.950853
  C 5.076878 -0.998248 -2.053811
  C 4.637669 -1.375869 -3.399139
  C 3.160089 -1.404604 -3.747891
  H 3.041692 -1.670705 -4.794637
  H 6.158042 -1.038905 -1.969006
  H 0.614850 0.580649 1.385411
  H 0.602303 -0.911274 0.429117
  H 0.554357 0.614898 -0.385136
  H 3.865943 1.514237 1.101760
  H 3.930821 -0.023942 1.910838
  H 2.355572 -0.881522 -1.457776
  H 5.076279 -0.140531 -0.191435
  H 5.080232 -2.356029 -3.624984
  H 5.160356 -0.716749 -4.102360
  H 2.701869 -0.428069 -3.597510
  H 2.637949 -2.160865 -3.166747
 22
 1.711443
  C 0.978601 0.110719 0.494420
  C 2.446269 0.108288 0.408614
  C 3.234196 0.731035 1.478590
  H 2.608933 1.151586 2.249539
  C 3.032326 -0.489381 -0.703067
  C 4.409881 -0.553184 -0.933232
  C 5.058199 -1.028565 -2.045924
  C 4.644401 -1.368820 -3.409680
  C 3.163370 -1.383210 -3.772520
  H 3.047435 -1.626439 -4.827411
  H 6.138914 -1.084968 -1.943445
  H 0.614406 0.595715 1.387456
  H 0.600102 -0.909963 0.462082
  H 0.548835 0.602339 -0.381509
  H 3.870496 1.518997 1.069411
  H 3.913176 0.007748 1.922284
  H 2.364880 -0.970178 -1.406552
  H 5.102353 -0.142976 -0.198074
  H 5.086013 -2.361067 -3.648370
  H 5.187474 -0.699833 -4.087223
  H 2.713998 -0.419202 -3.602697
  H 2.632304 -2.143286 -3.209950
 22
 1.575389
  C 0.979247 0.086250 0.503428
  C 2.446140 0.091863 0.404257
  C 3.245073 0.793356 1.431418
  H 2.616616 1.245198 2.187490
  C 3.032438 -0.556449 -0.677582
  C 4.410104 -0.622238 -0.914090
  C 5.051143 -1.118852 -2.025642
  C 4.650125 -1.378171 -3.407676
  C 3.169659 -1.330759 -3.780896
  H 3.059942 -1.469489 -4.858331
  H 6.125662 -1.223025 -1.895894
  H 0.620264 0.616259 1.375208
  H 0.607635 -0.937462 0.523750
  H 0.542115 0.528804 -0.385345
  H 3.862223 1.568175 0.974485
  H 3.942197 0.101150 1.916335
  H 2.378373 -1.081872 -1.351668
  H 5.083457 -0.169517 -0.194924
  H 5.074797 -2.348030 -3.691436
  H 5.209762 -0.662109 -4.020589
  H 2.730770 -0.371023 -3.525371
  H 2.621032 -2.118916 -3.289812
 22
 2.664710
  C 0.986635 0.005626 0.518680
  C 2.451281 0.038492 0.383095
  C 3.244900 0.920215 1.256497
  H 2.621593 1.427228 1.987315
  C 3.034004 -0.733559 -0.616522
  C 4.408483 -0.821010 -0.855100
  C 5.059772 -1.265786 -1.977828
  C 4.656107 -1.346566 -3.385169
  C 3.189946 -1.142721 -3.731474
  H 3.069512 -1.112055 -4.811604
  H 6.111201 -1.500807 -1.828195
  H 0.630993 0.632434 1.327571
  H 0.646626 -1.019511 0.675744
  H 0.513075 0.326502 -0.410184
  H 3.766431 1.673897 0.665087
  H 4.016088 0.353749 1.780622
  H 2.379209 -1.356249 -1.206388
  H 5.077105 -0.356432 -0.136209
  H 4.999282 -2.314828 -3.767449
  H 5.267875 -0.603772 -3.911882
  H 2.817378 -0.207679 -3.321635
  H 2.583987 -1.959114 -3.351827
 22
 6.218023
  C 0.982188 -0.065460 0.550949
  C 2.441519 -0.003346 0.376419
  C 3.231969 0.970994 1.156693
  H 2.601873 1.568045 1.807447
  C 3.026315 -0.854574 -0.546288
  C 4.391544 -0.899023 -0.835949
  C 5.052022 -1.312784 -1.965660
  C 4.662304 -1.365899 -3.378621
  C 3.234919 -0.962846 -3.724251
  H 3.105959 -0.961545 -4.804141
  H 6.072769 -1.646999 -1.796027
  H 0.619176 0.672260 1.258098
  H 0.690301 -1.061716 0.890432
  H 0.476566 0.079225 -0.402315
  H 3.780310 1.640390 0.494637
  H 3.979219 0.456610 1.766716
  H 2.387008 -1.571406 -1.041671
  H 5.086733 -0.331552 -0.222189
  H 4.883174 -2.369538 -3.755410
  H 5.368202 -0.718517 -3.908773
  H 3.013196 0.038936 -3.359743
  H 2.521389 -1.655691 -3.307011
 22
 11.553078
  C 0.966289 -0.093048 0.613700
  C 2.419374 -0.018775 0.374914
  C 3.223833 1.010142 1.066231
  H 2.604340 1.662738 1.672858
  C 2.987092 -0.923881 -0.502629
  C 4.332929 -0.984571 -0.828403
  C 5.040012 -1.360752 -1.947452
  C 4.690730 -1.380099 -3.379046
  C 3.311489 -0.844470 -3.739473
  H 3.167756 -0.890154 -4.814871
  H 6.032126 -1.758274 -1.765447
  H 0.623522 0.677233 1.291168
  H 0.706623 -1.067711 1.026387
  H 0.417111 -0.004323 -0.326286
  H 3.773222 1.620764 0.351880
  H 3.962594 0.537128 1.713809
  H 2.343543 -1.668370 -0.948404
  H 5.074949 -0.368782 -0.310602
  H 4.825438 -2.407731 -3.739394
  H 5.455210 -0.789412 -3.893151
  H 3.204182 0.193513 -3.427298
  H 2.527674 -1.433194 -3.274511
 22
 18.941759
  C 0.947957 -0.077495 0.689657
  C 2.386630 -0.032880 0.377809
  C 3.230611 1.046691 0.936950
  H 2.684983 1.646801 1.660358
  C 2.899625 -0.966317 -0.505366
  C 4.235469 -1.113018 -0.824840
  C 5.029993 -1.423178 -1.902649
  C 4.761506 -1.315830 -3.355998
  C 3.382995 -0.792992 -3.728714
  H 3.288756 -0.740002 -4.808760
  H 6.016835 -1.828877 -1.715862
  H 0.664647 0.675217 1.410870
  H 0.675860 -1.060190 1.075813
  H 0.359845 0.065106 -0.217213
  H 3.587725 1.708577 0.142612
  H 4.115473 0.629308 1.424016
  H 2.233509 -1.733939 -0.873603
  H 5.039769 -0.505984 -0.378157
  H 4.847755 -2.352262 -3.712406
  H 5.563147 -0.751859 -3.837741
  H 3.222104 0.202008 -3.326026
  H 2.600630 -1.454864 -3.359023
 22
 28.686119
  C 0.932740 -0.083777 0.829636
  C 2.337275 -0.002941 0.390700
  C 3.211220 1.080896 0.892462
  H 2.691671 1.712493 1.610700
  C 2.823366 -0.969397 -0.474187
  C 4.131229 -1.119070 -0.861181
  C 4.964240 -1.416470 -1.897075
  C 4.823841 -1.295083 -3.372055
  C 3.479138 -0.758800 -3.834385
  H 3.455739 -0.697021 -4.922148
  H 5.898631 -1.929380 -1.685741
  H 0.671619 0.709705 1.528064
  H 0.735469 -1.050690 1.284385
  H 0.261743 -0.027798 -0.025841
  H 3.540890 1.711780 0.069404
  H 4.105645 0.672929 1.351153
  H 2.143248 -1.742317 -0.815040
  H 5.063356 -0.599687 -0.484372
  H 4.966848 -2.328812 -3.732789
  H 5.649228 -0.715584 -3.781924
  H 3.313679 0.245116 -3.454949
  H 2.670918 -1.393151 -3.496247
 22
 41.946204
  C 0.918793 -0.079503 0.803890
  C 2.336395 -0.025864 0.384987
  C 3.213426 1.081080 0.836284
  H 2.686400 1.757005 1.498568
  C 2.820838 -1.014556 -0.463767
  C 4.078661 -1.146017 -0.925596
  C 5.025573 -1.411982 -1.849943
  C 4.814336 -1.285059 -3.338452
  C 3.482846 -0.681804 -3.736745
  H 3.429437 -0.598899 -4.820233
  H 5.992381 -1.900710 -1.667948
  H 0.659330 0.745640 1.463091
  H 0.705465 -1.020226 1.310150
  H 0.258845 -0.049692 -0.061869
  H 3.580256 1.657843 -0.021656
  H 4.080823 0.692513 1.353988
  H 2.150880 -1.812876 -0.744552
  H 5.176453 -0.596717 -0.778001
  H 4.917691 -2.316571 -3.701770
  H 5.633547 -0.716029 -3.783412
  H 3.369090 0.322873 -3.331167
  H 2.658281 -1.296258 -3.393969
