8

H     -0.493605    0.136783    0.102705
C     -1.335591    1.112548   -0.647151
C     -4.215358    0.855247    0.007353
H     -4.809165    1.871960   -0.686648
H     -1.230118    2.135876   -0.314122
H     -1.324351    1.025981   -1.723753
H     -4.165628    0.947755    1.084510
H     -4.518598   -0.109365   -0.366715
