13

C 1.008064 -0.071693 0.047824
C 2.503875 -0.082071 0.02534
C 3.219574 -0.595449 -0.980695
C 4.65688 -0.606281 -1.002287
C 5.376698 -1.121558 -2.014367
H 6.446589979179851 -1.1289426493118602 -2.0276568397718577
H 0.647341 0.396076 0.962854
H 0.612311 -1.086467 0.012288
H 0.610837 0.491788 -0.796171
H 3.004513 0.35472 0.879267
H 2.708481 -1.029588 -1.83127
H 5.161799 -0.171666 -0.148693
H 4.872458 -1.555517 -2.868568
