 13
 0.000000
  C 1.007538 -0.071144 0.048857
  C 2.504932 -0.084030 0.022438
  C 3.218949 -0.596945 -0.982628
  C 4.660188 -0.608941 -1.007200
  C 5.372458 -1.118488 -2.009341
  H 6.445296 -1.125455 -2.021571
  H 0.648329 0.397441 0.963269
  H 0.610003 -1.085124 0.013363
  H 0.609935 0.490773 -0.795383
  H 3.007922 0.352297 0.874678
  H 2.707395 -1.030601 -1.832494
  H 5.165653 -0.174989 -0.154121
  H 4.870824 -1.551441 -2.862001
 13
 0.279620
  C 1.016883 -0.117373 0.064134
  C 2.508819 -0.081001 0.028865
  C 3.230314 -0.377073 -1.050523
  C 4.669290 -0.511785 -1.044648
  C 5.336276 -1.176226 -1.981370
  H 6.400325 -1.332322 -1.937402
  H 0.623855 0.488665 0.876206
  H 0.695362 -1.149039 0.219312
  H 0.592370 0.225177 -0.877349
  H 3.008414 0.132624 0.964908
  H 2.731312 -0.603363 -1.984609
  H 5.187691 -0.109122 -0.183855
  H 4.828664 -1.595436 -2.835252
 13
 4.614384
  C 1.062619 -0.195380 0.019271
  C 2.538765 0.031226 0.011534
  C 3.277979 -0.103109 -1.086548
  C 4.699743 -0.384328 -1.060508
  C 5.213267 -1.287405 -1.884658
  H 6.222267 -1.653862 -1.810834
  H 0.591254 0.190611 0.918288
  H 0.935838 -1.279666 -0.009075
  H 0.581489 0.229986 -0.857836
  H 3.021131 0.122208 0.976339
  H 2.786169 -0.221774 -2.044452
  H 5.268330 -0.001689 -0.223353
  H 4.631429 -1.679032 -2.703894
 13
 11.939091
  C 1.138305 -0.269074 -0.024873
  C 2.565021 0.141782 -0.006376
  C 3.316038 0.098051 -1.103162
  C 4.714735 -0.304460 -1.055156
  C 5.062132 -1.337388 -1.811959
  H 5.990238 -1.859249 -1.706928
  H 0.621998 -0.087939 0.908282
  H 1.213817 -1.348653 -0.202607
  H 0.584468 0.188847 -0.844372
  H 3.055506 0.140313 0.967634
  H 2.828498 0.009785 -2.062440
  H 5.297656 -0.005060 -0.204735
  H 4.436491 -1.651959 -2.635570
 13
 23.174598
  C 1.247185 -0.385288 -0.075915
  C 2.589087 0.269284 -0.003130
  C 3.367784 0.305285 -1.092440
  C 4.702550 -0.268048 -1.044508
  C 4.853348 -1.380466 -1.754522
  H 5.696771 -2.041163 -1.642132
  H 0.668979 -0.318812 0.839766
  H 1.564184 -1.424145 -0.241748
  H 0.654838 -0.051961 -0.924084
  H 3.055518 0.294964 0.974991
  H 2.875509 0.253571 -2.058426
  H 5.324979 -0.048414 -0.188786
  H 4.218101 -1.580258 -2.601454
 13
 36.828389
  C 1.380996 -0.481461 -0.099934
  C 2.600016 0.368513 -0.018657
  C 3.380683 0.455091 -1.128837
  C 4.666218 -0.237831 -1.052318
  C 4.653685 -1.404914 -1.687702
  H 5.408833 -2.154941 -1.536007
  H 0.813848 -0.569704 0.813968
  H 1.886711 -1.443116 -0.315508
  H 0.732036 -0.234495 -0.940500
  H 3.079802 0.422058 0.953442
  H 2.876894 0.381950 -2.072567
  H 5.281257 -0.076578 -0.185311
  H 4.051571 -1.540732 -2.560678
 13
 51.296901
  C 1.531871 -0.556835 -0.118137
  C 2.611274 0.439835 -0.015753
  C 3.383441 0.558980 -1.143229
  C 4.605999 -0.238039 -1.051738
  C 4.449760 -1.427986 -1.633782
  H 5.140743 -2.228776 -1.461636
  H 0.994538 -0.764428 0.780757
  H 2.201754 -1.438387 -0.363908
  H 0.863348 -0.424399 -0.965951
  H 3.083444 0.547704 0.943219
  H 2.857527 0.483281 -2.080951
  H 5.207095 -0.131024 -0.178077
  H 3.881912 -1.521706 -2.545216
 13
 64.987483
  C 1.671555 -0.609262 -0.155654
  C 2.652490 0.476184 0.002986
  C 3.371140 0.629201 -1.161241
  C 4.532877 -0.214724 -1.075091
  C 4.235844 -1.448272 -1.549531
  H 4.888243 -2.267615 -1.285271
  H 1.167560 -0.943715 0.739617
  H 2.447219 -1.436681 -0.527262
  H 1.005194 -0.522356 -1.008446
  H 3.171916 0.539881 0.950397
  H 2.812227 0.577090 -2.092939
  H 5.161693 -0.120735 -0.198678
  H 3.705439 -1.584307 -2.478243
 13
 77.858506
  C 1.736167 -0.579962 -0.142898
  C 2.628884 0.495485 0.016030
  C 3.366559 0.637274 -1.169719
  C 4.471046 -0.222162 -1.054627
  C 4.090782 -1.496945 -1.510159
  H 4.732305 -2.328869 -1.261031
  H 1.274248 -0.981645 0.746668
  H 2.803086 -1.544451 -0.679671
  H 1.092081 -0.602105 -1.011519
  H 3.126212 0.623924 0.968557
  H 2.797551 0.554123 -2.092788
  H 5.114786 -0.148037 -0.188329
  H 3.621150 -1.589071 -2.480011
 13
 67.258393
  C 1.667230 -0.466749 -0.044071
  C 2.578555 0.501203 0.040710
  C 3.326788 0.562258 -1.189504
  C 4.431780 -0.284499 -1.030309
  C 4.111523 -1.599139 -1.564734
  H 4.819474 -2.382333 -1.329052
  H 1.200039 -0.856601 0.856988
  H 3.103115 -1.741667 -0.875146
  H 1.048754 -0.539325 -0.886903
  H 3.076392 0.672748 0.950601
  H 2.772983 0.476785 -2.106680
  H 5.021060 -0.188148 -0.114184
  H 3.759247 -1.632778 -2.586833
 13
 49.931323
  C 1.537868 -0.351138 0.084404
  C 2.525142 0.526510 0.068114
  C 3.300459 0.436919 -1.179850
  C 4.394133 -0.371029 -1.015134
  C 4.239325 -1.678694 -1.645305
  H 5.037483 -2.387510 -1.456660
  H 1.058403 -0.649978 0.982665
  H 3.316734 -1.976378 -1.045028
  H 0.932707 -0.492692 -0.790959
  H 3.039629 0.764707 0.955826
  H 2.751237 0.339749 -2.074629
  H 4.918866 -0.306982 -0.055180
  H 3.960406 -1.659174 -2.712443
 13
 33.778940
  C 1.388999 -0.219584 0.169317
  C 2.482203 0.510409 0.099418
  C 3.251403 0.285107 -1.129211
  C 4.353216 -0.483089 -1.001460
  C 4.377681 -1.759673 -1.705819
  H 5.290006 -2.357568 -1.571520
  H 0.847268 -0.393833 1.080552
  H 3.529472 -2.228537 -1.173446
  H 0.849532 -0.465867 -0.723948
  H 3.017821 0.807485 0.972113
  H 2.687001 0.207026 -2.034999
  H 4.925770 -0.395090 -0.062678
  H 4.139191 -1.668372 -2.799874
 13
 19.167973
  C 1.260922 -0.088318 0.228052
  C 2.453234 0.482083 0.110609
  C 3.206999 0.112934 -1.073068
  C 4.335861 -0.593608 -0.965192
  C 4.524232 -1.827837 -1.783286
  H 5.509985 -2.272885 -1.688666
  H 0.695883 -0.091451 1.144939
  H 3.773560 -2.477890 -1.316418
  H 0.732106 -0.442156 -0.642072
  H 2.998908 0.841172 0.971637
  H 2.629103 0.012328 -1.985556
  H 4.919817 -0.518411 -0.055448
  H 4.274872 -1.684485 -2.831457
 13
 8.769764
  C 1.144258 0.080611 0.299870
  C 2.413784 0.431540 0.138684
  C 3.126294 -0.077555 -1.017722
  C 4.287269 -0.724463 -0.922950
  C 4.647517 -1.829207 -1.861171
  H 5.692768 -2.114591 -1.794663
  H 0.587622 0.251866 1.204467
  H 4.025324 -2.659949 -1.524573
  H 0.584406 -0.336339 -0.522314
  H 2.994101 0.848777 0.950106
  H 2.541547 -0.184936 -1.923531
  H 4.881093 -0.638107 -0.021360
  H 4.389497 -1.596171 -2.890769
 13
 0.014759
  C 1.025441 0.400176 0.327993
  C 2.334401 0.190948 0.225124
  C 2.937153 -0.555186 -0.853521
  C 4.220417 -0.918036 -0.881857
  C 4.819725 -1.761007 -1.965811
  H 5.895423 -1.851530 -1.847006
  H 0.592160 0.934322 1.156169
  H 4.382809 -2.760517 -1.944873
  H 0.339929 0.034480 -0.418922
  H 3.006937 0.556066 0.991067
  H 2.275129 -0.860450 -1.653992
  H 4.876931 -0.623589 -0.074346
  H 4.609028 -1.334199 -2.945950
