 23
 0.000000
  C 0.954369 0.171286 0.477568
  C 2.453994 0.124057 0.359486
  C 3.256768 0.598073 1.539536
  H 2.607167 0.922608 2.347770
  C 3.012735 -0.330313 -0.772129
  C 4.426473 -0.426588 -1.012295
  C 5.092082 -0.860813 -2.094536
  C 4.656932 -1.397327 -3.431606
  C 3.174343 -1.523959 -3.747901
  H 3.063755 -1.927056 -4.752742
  O 6.470668 -0.858228 -2.088319
  H 0.643397 0.559535 1.444307
  H 0.527137 -0.825297 0.356036
  H 0.526919 0.806827 -0.299507
  H 3.898087 1.436104 1.261040
  H 3.898261 -0.199671 1.918010
  H 2.352198 -0.646298 -1.558796
  H 5.048279 -0.095017 -0.186156
  H 5.130001 -2.381113 -3.532619
  H 5.130317 -0.756429 -4.184572
  H 2.681656 -0.555337 -3.718012
  H 2.681370 -2.203223 -3.056938
  H 6.798363 -0.521889 -1.249874
 23
 1.312379
  C 0.968643 -0.003429 0.554064
  C 2.466567 0.080893 0.365579
  C 3.261538 0.744868 1.450235
  H 2.611332 1.125072 2.231584
  C 3.015518 -0.424818 -0.740146
  C 4.420080 -0.445972 -1.020759
  C 5.082267 -0.954700 -2.067180
  C 4.654372 -1.461452 -3.410913
  C 3.191397 -1.351786 -3.800395
  H 3.075640 -1.666761 -4.834197
  O 6.454184 -1.030147 -1.986825
  H 0.664672 0.426201 1.501875
  H 0.637473 -1.039068 0.525470
  H 0.453476 0.527718 -0.243306
  H 3.837728 1.578283 1.055752
  H 3.958302 0.041634 1.902720
  H 2.357805 -0.885177 -1.456310
  H 5.038081 0.041801 -0.275010
  H 4.978090 -2.502419 -3.493799
  H 5.257420 -0.897624 -4.128486
  H 2.841383 -0.328406 -3.711899
  H 2.571042 -1.994505 -3.185803
  H 6.695654 -0.818550 -1.078946
 23
 6.812648
  C 1.002823 -0.146934 0.660604
  C 2.463525 0.068120 0.372884
  C 3.241858 0.921376 1.334346
  H 2.593160 1.328703 2.105189
  C 3.011832 -0.490509 -0.717992
  C 4.403254 -0.454490 -1.039306
  C 5.064900 -1.038733 -2.058824
  C 4.650890 -1.502914 -3.420866
  C 3.251626 -1.129077 -3.884007
  H 3.134587 -1.404275 -4.930283
  O 6.420271 -1.225190 -1.863925
  H 0.705539 0.332155 1.589671
  H 0.777223 -1.210327 0.738948
  H 0.389131 0.259759 -0.143441
  H 3.720101 1.755842 0.822218
  H 4.022375 0.336679 1.823267
  H 2.368382 -1.094328 -1.339389
  H 4.999825 0.194140 -0.405790
  H 4.785975 -2.587958 -3.487833
  H 5.387881 -1.058537 -4.097848
  H 3.087587 -0.058605 -3.788580
  H 2.490989 -1.653432 -3.314754
  H 6.513070 -1.026061 -0.922750
 23
 17.988863
  C 1.025184 -0.177573 0.696056
  C 2.471633 0.078798 0.367383
  C 3.246701 0.979446 1.290223
  H 2.592761 1.427604 2.034426
  C 3.035416 -0.534769 -0.702449
  C 4.413231 -0.475613 -1.042678
  C 5.056521 -1.102385 -2.059900
  C 4.647413 -1.540147 -3.423270
  C 3.283730 -1.064857 -3.893681
  H 3.161938 -1.305023 -4.947523
  O 6.382153 -1.365501 -1.758342
  H 0.723558 0.347145 1.599340
  H 0.843730 -1.241462 0.843661
  H 0.382088 0.154207 -0.119036
  H 3.731574 1.786931 0.742390
  H 4.019088 0.417388 1.816303
  H 2.406469 -1.194531 -1.287975
  H 4.960020 0.340348 -0.585661
  H 4.707620 -2.632196 -3.495259
  H 5.424540 -1.147984 -4.086781
  H 3.194105 0.012946 -3.778560
  H 2.482189 -1.543477 -3.343547
  H 6.301062 -1.099854 -0.823362
 23
 39.890784
  C 1.044434 -0.183167 0.712562
  C 2.492510 0.046182 0.373927
  C 3.268290 1.009965 1.228611
  H 2.620871 1.491404 1.957195
  C 3.051764 -0.611685 -0.657172
  C 4.417987 -0.540591 -1.015108
  C 5.062859 -1.160515 -2.058508
  C 4.654984 -1.545808 -3.438060
  C 3.312515 -1.007358 -3.905797
  H 3.179747 -1.231358 -4.962578
  O 6.331853 -1.438897 -1.690922
  H 0.747412 0.388269 1.588890
  H 0.853644 -1.237167 0.913747
  H 0.404119 0.112752 -0.118031
  H 3.731189 1.791525 0.624407
  H 4.059440 0.492367 1.771012
  H 2.434672 -1.312645 -1.205519
  H 4.924434 0.348638 -0.655623
  H 4.676206 -2.638170 -3.527535
  H 5.453304 -1.173417 -4.088962
  H 3.270686 0.072448 -3.780814
  H 2.490803 -1.454188 -3.358852
  H 6.019730 -1.094392 -0.653133
 23
 54.880202
  C 1.046498 -0.187982 0.709119
  C 2.496128 0.036966 0.375216
  C 3.269145 1.009726 1.220184
  H 2.619157 1.508170 1.934298
  C 3.064953 -0.634187 -0.634933
  C 4.465714 -0.569245 -0.996201
  C 5.112454 -1.199157 -2.084351
  C 4.670202 -1.547702 -3.463110
  C 3.328453 -0.975075 -3.896446
  H 3.167926 -1.179259 -4.953064
  O 6.321375 -1.485211 -1.728641
  H 0.744223 0.397415 1.574033
  H 0.857700 -1.239759 0.926676
  H 0.409621 0.092387 -0.130082
  H 3.741978 1.776478 0.605255
  H 4.054542 0.497202 1.776905
  H 2.461219 -1.343518 -1.182573
  H 4.960969 0.351084 -0.689909
  H 4.672103 -2.637486 -3.566384
  H 5.463161 -1.181866 -4.125397
  H 3.304286 0.101265 -3.744993
  H 2.510719 -1.419253 -3.339627
  H 5.800050 -1.044959 -0.527990
 23
 31.677242
  C 1.080755 -0.225566 0.628665
  C 2.539925 0.009885 0.354333
  C 3.266880 1.001368 1.213451
  H 2.579779 1.507574 1.886543
  C 3.157104 -0.673707 -0.597909
  C 4.605044 -0.536645 -0.970798
  C 5.226920 -1.231723 -2.128195
  C 4.657640 -1.544968 -3.481974
  C 3.309475 -0.924335 -3.817904
  H 3.076880 -1.098037 -4.866265
  O 6.380444 -1.539651 -1.865873
  H 0.744998 0.339269 1.492532
  H 0.889312 -1.280777 0.817646
  H 0.475572 0.069157 -0.227875
  H 3.757723 1.761659 0.607031
  H 4.025082 0.504194 1.815947
  H 2.601138 -1.388726 -1.185079
  H 5.061838 0.425175 -0.708390
  H 4.631711 -2.630036 -3.607357
  H 5.407219 -1.175880 -4.189049
  H 3.327526 0.147849 -3.642842
  H 2.514258 -1.356673 -3.221740
  H 5.585751 -0.927416 -0.405518
 23
 8.395724
  C 1.097979 -0.311788 0.625622
  C 2.548716 -0.033329 0.338732
  C 3.230240 1.037731 1.139670
  H 2.531950 1.538559 1.804962
  C 3.191454 -0.728472 -0.592161
  C 4.648914 -0.604140 -0.907974
  C 5.261556 -1.272034 -2.113124
  C 4.620009 -1.512112 -3.455923
  C 3.305828 -0.799572 -3.750189
  H 3.036333 -0.953558 -4.793419
  O 6.409698 -1.615743 -1.914119
  H 0.720376 0.332046 1.414543
  H 0.959148 -1.347357 0.933776
  H 0.492394 -0.149715 -0.265545
  H 3.674801 1.787357 0.484964
  H 4.032045 0.611289 1.741679
  H 2.659988 -1.501243 -1.126137
  H 5.013224 0.425617 -0.800106
  H 4.501627 -2.592899 -3.569673
  H 5.369568 -1.204201 -4.192206
  H 3.401141 0.268682 -3.572860
  H 2.493751 -1.176427 -3.138912
  H 5.414168 -1.068743 -0.228635
 23
 -0.451430
  C 1.099449 -0.299851 0.546641
  C 2.565415 -0.065064 0.301263
  C 3.243047 1.019668 1.086064
  H 2.538349 1.546626 1.722791
  C 3.226302 -0.812881 -0.573235
  C 4.687661 -0.652796 -0.866609
  C 5.313492 -1.290820 -2.084025
  C 4.611075 -1.456747 -3.411316
  C 3.276607 -0.760378 -3.637706
  H 2.996763 -0.861516 -4.684658
  O 6.446057 -1.661430 -1.968813
  H 0.717260 0.360530 1.319655
  H 0.921284 -1.328500 0.856671
  H 0.526778 -0.126006 -0.363674
  H 3.709823 1.746386 0.420505
  H 4.027978 0.599976 1.714707
  H 2.704862 -1.608186 -1.082835
  H 4.964424 0.408298 -0.892595
  H 4.521356 -2.531768 -3.590835
  H 5.328378 -1.087867 -4.152600
  H 3.347929 0.299004 -3.404193
  H 2.480403 -1.192695 -3.042173
  H 5.302533 -1.051752 -0.066654
 23
 1.690077
  C 1.065295 -0.050584 0.516306
  C 2.557757 0.035447 0.342281
  C 3.336782 0.820172 1.357990
  H 2.683595 1.261828 2.103951
  C 3.149817 -0.567175 -0.686055
  C 4.631123 -0.535285 -0.894035
  C 5.331055 -1.066367 -2.128276
  C 4.682764 -1.442474 -3.449317
  C 3.214709 -1.190862 -3.758456
  H 3.046780 -1.392668 -4.815366
  O 6.539757 -1.150928 -2.076848
  H 0.746985 0.418326 1.442977
  H 0.737823 -1.089562 0.527390
  H 0.555468 0.446928 -0.307737
  H 3.899620 1.621488 0.878936
  H 4.056123 0.177789 1.867088
  H 2.536625 -1.129084 -1.365120
  H 4.977370 0.503921 -0.818147
  H 4.902082 -2.506872 -3.585189
  H 5.289965 -0.920049 -4.196065
  H 2.938740 -0.156674 -3.564700
  H 2.562311 -1.854120 -3.198713
  H 5.114680 -1.040965 -0.046519
 23
 -7.223629
  C 1.179845 -0.688649 0.625814
  C 2.570244 -0.255800 0.250733
  C 2.968822 1.141423 0.626501
  H 2.152751 1.660074 1.114417
  C 3.387083 -1.074120 -0.404024
  C 4.789705 -0.734400 -0.815267
  C 5.252822 -1.502864 -2.034310
  C 4.341597 -1.467660 -3.243772
  C 3.670713 -0.124693 -3.509105
  H 3.073488 -0.186611 -4.417310
  O 6.287062 -2.124487 -2.042336
  H 0.854728 -0.203845 1.544714
  H 1.129353 -1.767385 0.762948
  H 0.475910 -0.416452 -0.164340
  H 3.257583 1.715602 -0.252205
  H 3.820022 1.124481 1.303337
  H 3.058689 -2.078655 -0.634173
  H 4.870516 0.329237 -1.040155
  H 3.572476 -2.230660 -3.080229
  H 4.929526 -1.779859 -4.112240
  H 4.415690 0.654997 -3.646821
  H 3.013898 0.153955 -2.688266
  H 5.484702 -0.951399 0.002465
