 25
 0.000000
  C 0.977438 0.160065 0.451717
  C 2.448555 0.139868 0.399900
  C 3.238470 0.603694 1.552238
  H 2.640809 0.940089 2.389533
  C 3.041676 -0.329757 -0.768612
  C 4.423182 -0.417510 -0.987945
  C 5.085510 -0.866457 -2.107197
  C 4.614781 -1.385156 -3.401108
  C 3.131576 -1.512909 -3.721495
  C 2.936760 -2.076401 -5.127353
  H 6.166310 -0.850743 -2.067725
  H 0.592797 0.538738 1.393472
  H 0.583540 -0.845042 0.292881
  H 0.582701 0.774880 -0.358729
  H 3.893859 1.420168 1.241223
  H 3.894684 -0.200165 1.892913
  H 2.371638 -0.644692 -1.551553
  H 5.054538 -0.089713 -0.171643
  H 5.085908 -2.369746 -3.524979
  H 5.086753 -0.759395 -4.170785
  H 2.649936 -0.535036 -3.675062
  H 2.649153 -2.187527 -3.012606
  H 3.385239 -1.426135 -5.875035
  H 1.877105 -2.166370 -5.353078
  H 3.384516 -3.063412 -5.218696
 25
 8.882444
  C 0.935113 0.174190 0.487198
  C 2.405659 0.141742 0.404596
  C 3.219328 0.599808 1.542158
  H 2.628369 0.938830 2.386083
  C 2.966540 -0.327780 -0.763537
  C 4.503049 -0.429937 -1.018732
  C 5.137457 -0.877053 -2.133384
  C 4.647921 -1.393090 -3.420779
  C 3.160787 -1.510870 -3.716564
  C 2.937540 -2.072904 -5.118888
  H 6.220667 -0.864542 -2.101743
  H 0.576876 0.556519 1.437887
  H 0.528343 -0.827059 0.335552
  H 0.527346 0.790996 -0.315447
  H 3.874664 1.412382 1.224183
  H 3.875721 -0.205857 1.875123
  H 2.295282 -0.640618 -1.541113
  H 5.133211 -0.104124 -0.207179
  H 5.112854 -2.379892 -3.553067
  H 5.113843 -0.771613 -4.198059
  H 2.687575 -0.529395 -3.660689
  H 2.686683 -2.181545 -2.998401
  H 3.377723 -1.425890 -5.874220
  H 1.873716 -2.155729 -5.326950
  H 3.376923 -3.062876 -5.218013
 25
 27.721607
  C 0.886098 0.192042 0.531675
  C 2.358537 0.146843 0.417213
  C 3.199342 0.599613 1.541734
  H 2.620187 0.941058 2.392022
  C 2.888318 -0.325464 -0.758061
  C 4.580617 -0.440307 -1.044763
  C 5.194369 -0.889888 -2.165503
  C 4.686488 -1.405210 -3.450995
  C 3.195224 -1.512059 -3.719510
  C 2.938764 -2.072001 -5.116563
  H 6.278577 -0.880361 -2.141275
  H 0.555404 0.577637 1.490627
  H 0.466009 -0.805023 0.388100
  H 0.464959 0.811461 -0.262172
  H 3.855202 1.407988 1.214778
  H 3.856404 -0.209269 1.865100
  H 2.222376 -0.639257 -1.538067
  H 5.199494 -0.112584 -0.228219
  H 5.144359 -2.394307 -3.591870
  H 5.145329 -0.788112 -4.236101
  H 2.731875 -0.526410 -3.652549
  H 2.730978 -2.178052 -2.990433
  H 3.368984 -1.428690 -5.880812
  H 1.870373 -2.146399 -5.303611
  H 3.368159 -3.065439 -5.224635
 25
 48.068320
  C 0.850351 0.215123 0.588995
  C 2.315877 0.146673 0.416758
  C 3.199444 0.586806 1.510284
  H 2.638297 0.933106 2.373042
  C 2.782071 -0.327104 -0.762452
  C 4.633280 -0.448066 -1.064603
  C 5.222819 -0.895280 -2.179357
  C 4.720827 -1.411623 -3.467016
  C 3.228514 -1.513863 -3.723901
  C 2.949784 -2.072035 -5.116423
  H 6.309464 -0.882068 -2.146059
  H 0.569441 0.606114 1.561568
  H 0.407960 -0.773801 0.457317
  H 0.407058 0.837112 -0.190536
  H 3.852970 1.389572 1.167815
  H 3.854268 -0.228902 1.818142
  H 2.152096 -0.646947 -1.557556
  H 5.189989 -0.108660 -0.218839
  H 5.179286 -2.399479 -3.612473
  H 5.180113 -0.798668 -4.254729
  H 2.769248 -0.526501 -3.651274
  H 2.768366 -2.177170 -2.989456
  H 3.373925 -1.431569 -5.886568
  H 1.878889 -2.141317 -5.290624
  H 3.373069 -3.067485 -5.230662
 25
 68.205654
  C 0.797767 0.230739 0.627883
  C 2.267760 0.151289 0.428240
  C 3.173901 0.586832 1.510522
  H 2.627585 0.936059 2.380787
  C 2.713793 -0.330022 -0.769867
  C 4.720324 -0.464586 -1.106070
  C 5.285769 -0.910089 -2.216429
  C 4.762774 -1.422335 -3.493672
  C 3.265519 -1.510179 -3.714704
  C 2.945277 -2.065339 -5.099630
  H 6.374671 -0.901591 -2.194864
  H 0.538965 0.623716 1.605554
  H 0.344975 -0.755100 0.504491
  H 0.344108 0.856330 -0.143454
  H 3.827617 1.384991 1.157875
  H 3.828905 -0.232605 1.807638
  H 2.086297 -0.654213 -1.575859
  H 5.264228 -0.121227 -0.250436
  H 5.210627 -2.413975 -3.648028
  H 5.211445 -0.812885 -4.290522
  H 2.820170 -0.517283 -3.627678
  H 2.819248 -2.167451 -2.965978
  H 3.356214 -1.429361 -5.880775
  H 1.869795 -2.123593 -5.246409
  H 3.355298 -3.065191 -5.224845
 25
 83.666665
  C 0.756423 0.252968 0.667386
  C 2.246706 0.141195 0.409438
  C 3.193946 0.592353 1.476253
  H 2.675329 0.960755 2.354551
  C 2.600487 -0.336001 -0.738093
  C 4.758636 -0.508962 -1.118894
  C 5.281085 -0.923908 -2.205642
  C 4.792418 -1.426836 -3.516638
  C 3.288422 -1.535112 -3.714483
  C 2.970055 -2.056054 -5.109044
  H 6.377099 -0.903964 -2.182467
  H 0.564350 0.662497 1.651699
  H 0.282029 -0.723065 0.582767
  H 0.288343 0.884415 -0.085297
  H 3.839737 1.379378 1.091861
  H 3.842929 -0.230697 1.768969
  H 2.008956 -0.658337 -1.564326
  H 5.222918 -0.157010 -0.225615
  H 5.253887 -2.404414 -3.690724
  H 5.217463 -0.787417 -4.297152
  H 2.829369 -0.553708 -3.588007
  H 2.868011 -2.218408 -2.975008
  H 3.359989 -1.388930 -5.875330
  H 1.893864 -2.132298 -5.244293
  H 3.400590 -3.043017 -5.266887
 25
 89.749693
  C 0.719626 0.285609 0.728984
  C 2.208885 0.141851 0.414561
  C 3.192832 0.581343 1.458123
  H 2.693327 0.954327 2.344608
  C 2.481794 -0.338345 -0.747941
  C 4.800958 -0.521075 -1.130935
  C 5.304653 -0.934049 -2.230051
  C 4.838102 -1.437343 -3.552031
  C 3.332242 -1.548716 -3.721792
  C 2.983908 -2.059059 -5.114353
  H 6.400502 -0.897170 -2.196656
  H 0.602298 0.700003 1.723415
  H 0.224050 -0.680364 0.677023
  H 0.239864 0.937522 0.004012
  H 3.830236 1.367375 1.058951
  H 3.830821 -0.252559 1.742406
  H 1.958759 -0.670263 -1.618177
  H 5.151813 -0.149927 -0.192956
  H 5.298384 -2.411716 -3.724676
  H 5.243641 -0.783605 -4.325963
  H 2.879102 -0.567376 -3.577485
  H 2.932212 -2.237628 -2.976740
  H 3.357154 -1.384323 -5.882498
  H 1.905535 -2.136207 -5.229400
  H 3.412249 -3.044635 -5.288121
 25
 95.702717
  C 0.682051 0.320930 0.796768
  C 2.161078 0.155834 0.446395
  C 3.167743 0.583386 1.464360
  H 2.689936 0.962149 2.361112
  C 2.391420 -0.326660 -0.724061
  C 4.861173 -0.541585 -1.159347
  C 5.343958 -0.948470 -2.261776
  C 4.873959 -1.445769 -3.582336
  C 3.364070 -1.567084 -3.738302
  C 3.005799 -2.065960 -5.132496
  H 6.442950 -0.906387 -2.237453
  H 0.600132 0.736891 1.794279
  H 0.173651 -0.638338 0.759633
  H 0.196186 0.982025 0.085186
  H 3.801623 1.363533 1.050657
  H 3.799809 -0.258140 1.736546
  H 1.884358 -0.652615 -1.599077
  H 5.176308 -0.169897 -0.215858
  H 5.339788 -2.416865 -3.763775
  H 5.266535 -0.781100 -4.354925
  H 2.906132 -0.589832 -3.579960
  H 2.977517 -2.267277 -2.996084
  H 3.366572 -1.380501 -5.896829
  H 1.927035 -2.150544 -5.238434
  H 3.440146 -3.046059 -5.320085
 25
 100.313098
  C 0.639728 0.347706 0.848269
  C 2.113327 0.164884 0.463839
  C 3.148625 0.582257 1.463205
  H 2.692476 0.965320 2.369854
  C 2.305436 -0.317015 -0.707962
  C 4.927803 -0.556834 -1.186055
  C 5.394112 -0.962711 -2.297333
  C 4.911775 -1.454331 -3.610550
  C 3.399794 -1.574451 -3.739876
  C 3.015925 -2.065103 -5.130635
  H 6.495074 -0.920243 -2.283914
  H 0.588967 0.763624 1.848130
  H 0.120407 -0.606439 0.824165
  H 0.146945 1.017707 0.149407
  H 3.780039 1.358102 1.036569
  H 3.776084 -0.266981 1.723575
  H 1.816380 -0.644111 -1.595775
  H 5.204169 -0.182394 -0.230310
  H 5.374419 -2.424696 -3.800527
  H 5.290328 -0.784572 -4.384965
  H 2.946618 -0.597582 -3.567594
  H 3.027578 -2.278876 -2.994825
  H 3.363389 -1.374984 -5.896974
  H 1.935609 -2.149154 -5.218382
  H 3.446850 -3.044136 -5.331482
 25
 103.677301
  C 0.600943 0.374617 0.910455
  C 2.063294 0.177409 0.487673
  C 3.123079 0.582873 1.462431
  H 2.689656 0.968704 2.378816
  C 2.219570 -0.305720 -0.688900
  C 4.993666 -0.567847 -1.215116
  C 5.444337 -0.974418 -2.328301
  C 4.949650 -1.465454 -3.639540
  C 3.433385 -1.578391 -3.749628
  C 3.030130 -2.066828 -5.136131
  H 6.547051 -0.936024 -2.323416
  H 0.583306 0.789451 1.911834
  H 0.073290 -0.574366 0.900520
  H 0.098797 1.052026 0.226729
  H 3.749687 1.354160 1.022782
  H 3.745904 -0.272924 1.708706
  H 1.748470 -0.635373 -1.580169
  H 5.232693 -0.192827 -0.253467
  H 5.405884 -2.439017 -3.832865
  H 5.321463 -0.794993 -4.417695
  H 2.988119 -0.598554 -3.571396
  H 3.067742 -2.281591 -2.999822
  H 3.371784 -1.378037 -5.906066
  H 1.948514 -2.145996 -5.211313
  H 3.454192 -3.047564 -5.342217
 25
 106.122505
  C 0.559948 0.396462 0.962272
  C 2.012485 0.186631 0.502988
  C 3.099686 0.581111 1.456516
  H 2.689168 0.969402 2.382831
  C 2.137156 -0.296000 -0.674050
  C 5.063703 -0.577778 -1.245248
  C 5.500900 -0.987345 -2.363769
  C 4.988370 -1.476039 -3.666199
  C 3.469612 -1.575881 -3.748172
  C 3.037558 -2.062589 -5.126295
  H 6.604936 -0.955897 -2.370825
  H 0.571890 0.809651 1.964797
  H 0.024642 -0.548616 0.964917
  H 0.048357 1.081197 0.292430
  H 3.722840 1.348762 1.004134
  H 3.718873 -0.282028 1.688768
  H 1.680795 -0.630963 -1.573075
  H 5.268899 -0.201178 -0.275383
  H 5.433221 -2.453256 -3.863504
  H 5.351905 -0.807970 -4.449335
  H 3.037115 -0.591808 -3.563073
  H 3.112298 -2.274629 -2.990689
  H 3.371502 -1.377650 -5.902991
  H 1.954215 -2.132768 -5.182368
  H 3.449746 -3.047124 -5.338226
 25
 107.845940
  C 0.520725 0.418972 1.018045
  C 1.960227 0.198444 0.524786
  C 3.069597 0.581936 1.455461
  H 2.680656 0.971861 2.390032
  C 2.058394 -0.285023 -0.655770
  C 5.136278 -0.588255 -1.276184
  C 5.560846 -1.000139 -2.397583
  C 5.027447 -1.487658 -3.694290
  C 3.504396 -1.574431 -3.750182
  C 3.045376 -2.059902 -5.120732
  H 6.665894 -0.976383 -2.417873
  H 0.559488 0.830186 2.020573
  H -0.020750 -0.522009 1.032212
  H 0.000448 1.109546 0.361668
  H 3.688390 1.345467 0.991708
  H 3.684784 -0.286889 1.673979
  H 1.613804 -0.622360 -1.554852
  H 5.315767 -0.212036 -0.304018
  H 5.461361 -2.470187 -3.895741
  H 5.384228 -0.821375 -4.483670
  H 3.083843 -0.585867 -3.559220
  H 3.154027 -2.268992 -2.985249
  H 3.372348 -1.379149 -5.903828
  H 1.960679 -2.121086 -5.158994
  H 3.445764 -3.048023 -5.337547
 25
 109.047722
  C 0.481412 0.440202 1.070830
  C 1.907701 0.208393 0.542490
  C 3.042005 0.581054 1.450063
  H 2.676432 0.972872 2.393596
  C 1.978589 -0.274040 -0.637580
  C 5.207527 -0.599866 -1.307444
  C 5.619286 -1.013657 -2.432434
  C 5.064621 -1.498373 -3.720622
  C 3.541453 -1.571698 -3.746646
  C 3.052990 -2.054167 -5.107465
  H 6.723848 -0.997501 -2.467734
  H 0.547842 0.849314 2.072984
  H -0.066650 -0.496825 1.096961
  H -0.047694 1.137088 0.428147
  H 3.656538 1.340659 0.973689
  H 3.653484 -0.294237 1.654031
  H 1.542904 -0.615498 -1.543027
  H 5.361252 -0.222860 -0.329460
  H 5.486111 -2.483676 -3.926987
  H 5.412072 -0.834890 -4.514560
  H 3.133813 -0.579738 -3.548141
  H 3.200312 -2.262145 -2.974455
  H 3.371072 -1.376665 -5.897114
  H 1.967363 -2.106240 -5.125261
  H 3.441077 -3.045860 -5.330701
 25
 109.827246
  C 0.441776 0.461605 1.126068
  C 1.853554 0.220420 0.566457
  C 3.009364 0.583010 1.450998
  H 2.665518 0.976283 2.401846
  C 1.902538 -0.262784 -0.616684
  C 5.281882 -0.611455 -1.338383
  C 5.682549 -1.027533 -2.467430
  C 5.103116 -1.509662 -3.747480
  C 3.576380 -1.569547 -3.745481
  C 3.059087 -2.049645 -5.097435
  H 6.787273 -1.019678 -2.518940
  H 0.531793 0.868760 2.127154
  H -0.111771 -0.471790 1.162758
  H -0.095613 1.163401 0.495640
  H 3.619644 1.338525 0.963101
  H 3.617447 -0.297506 1.641367
  H 1.473871 -0.605009 -1.519480
  H 5.418657 -0.235531 -0.360450
  H 5.513154 -2.500506 -3.959134
  H 5.443109 -0.847740 -4.548229
  H 3.180720 -0.573348 -3.540327
  H 3.243048 -2.256232 -2.965901
  H 3.368750 -1.375947 -5.893351
  H 1.972853 -2.092499 -5.095841
  H 3.434602 -3.044603 -5.326210
