 15
 0.000000
  C 0.939561 0.142192 0.406391
  C 2.410357 0.140669 0.401858
  C 3.208044 0.601379 1.547184
  C 2.471204 1.093333 2.771583
  H 3.179088 1.400210 3.535216
  C 3.036412 -0.316207 -0.734722
  H 4.104715 -0.362974 -0.851849
  H 0.508335 0.513092 1.328746
  H 0.567689 -0.868079 0.221778
  H 0.567213 0.743147 -0.426201
  H 3.883395 1.394797 1.193388
  H 3.883780 -0.215856 1.840863
  H 1.835136 0.311480 3.185562
  H 1.834966 1.944146 2.529585
  H 2.407854 -0.642977 -1.546981
 15
 5.897665
  C 0.956842 0.135732 0.390348
  C 2.416038 0.132255 0.380961
  C 3.198410 0.598921 1.540995
  C 2.464271 1.089000 2.760866
  H 3.170587 1.396827 3.527248
  C 3.082118 -0.309746 -0.718590
  H 4.128321 -0.379087 -0.891979
  H 0.535084 0.506773 1.312873
  H 0.579836 -0.870541 0.202187
  H 0.579443 0.731271 -0.442134
  H 3.890063 1.379442 1.185174
  H 3.890551 -0.210347 1.824226
  H 1.823425 0.312274 3.179648
  H 1.823335 1.939650 2.526014
  H 2.307624 -0.575012 -1.377736
 15
 16.601272
  C 0.972765 0.128435 0.372085
  C 2.436036 0.125958 0.365269
  C 3.197193 0.599323 1.541744
  C 2.453310 1.091148 2.766394
  H 3.154430 1.399952 3.535564
  C 3.115373 -0.315357 -0.732292
  H 4.147265 -0.408154 -0.963882
  H 0.552081 0.500577 1.296994
  H 0.588911 -0.885187 0.187017
  H 0.588403 0.731268 -0.463543
  H 3.898765 1.374214 1.192448
  H 3.899486 -0.201152 1.825670
  H 1.812776 0.314353 3.182667
  H 1.812849 1.940158 2.529939
  H 2.215624 -0.516494 -1.231892
 15
 30.102430
  C 0.974143 0.123039 0.358576
  C 2.444789 0.120915 0.352685
  C 3.192879 0.602567 1.549538
  C 2.451027 1.088885 2.760837
  H 3.147371 1.397131 3.528679
  C 3.143785 -0.321482 -0.747311
  H 4.166803 -0.428120 -1.013091
  H 0.558679 0.492847 1.277411
  H 0.586366 -0.884400 0.180936
  H 0.585860 0.726491 -0.467659
  H 3.892525 1.373066 1.209793
  H 3.893416 -0.187996 1.837252
  H 1.815479 0.314601 3.173009
  H 1.815673 1.933012 2.523394
  H 2.165428 -0.466772 -1.108053
 15
 44.290512
  C 0.972521 0.118218 0.346725
  C 2.451145 0.114799 0.337380
  C 3.190132 0.600991 1.545734
  C 2.443958 1.089393 2.762081
  H 3.145837 1.399392 3.534518
  C 3.168981 -0.328233 -0.764235
  H 4.179922 -0.439964 -1.042455
  H 0.560770 0.491885 1.275410
  H 0.578300 -0.886613 0.176082
  H 0.577706 0.724689 -0.472404
  H 3.893654 1.374508 1.207311
  H 3.894528 -0.190858 1.836454
  H 1.806236 0.309915 3.178701
  H 1.806594 1.940649 2.524131
  H 2.145909 -0.426882 -1.009228
 15
 57.136906
  C 0.973057 0.120403 0.352818
  C 2.452262 0.111182 0.328037
  C 3.189944 0.597288 1.536618
  C 2.431395 1.084019 2.748304
  H 3.130754 1.394753 3.523494
  C 3.189506 -0.331282 -0.772250
  H 4.205633 -0.440512 -1.043806
  H 0.578710 0.497272 1.289999
  H 0.569402 -0.884327 0.192355
  H 0.568246 0.734047 -0.458885
  H 3.889037 1.373692 1.199235
  H 3.889467 -0.196224 1.830055
  H 1.795874 0.303085 3.163529
  H 1.797048 1.935817 2.508310
  H 2.132243 -0.394626 -0.929978
 15
 61.566221
  C 0.948214 0.119323 0.348161
  C 2.454405 0.086774 0.267499
  C 3.228301 0.605828 1.556631
  C 2.405412 1.074244 2.726195
  H 3.117685 1.379120 3.488610
  C 3.226681 -0.315941 -0.732293
  H 4.224006 -0.446645 -1.056206
  H 0.610239 0.505596 1.303852
  H 0.533450 -0.888158 0.231654
  H 0.533075 0.762444 -0.435208
  H 3.881130 1.409362 1.210350
  H 3.884224 -0.211807 1.861765
  H 1.793890 0.288004 3.153683
  H 1.793947 1.939110 2.492455
  H 2.130230 -0.385781 -0.907164
 15
 65.450164
  C 0.951465 0.126697 0.365382
  C 2.468718 0.084025 0.260342
  C 3.245130 0.607146 1.558258
  C 2.389471 1.067326 2.709429
  H 3.082715 1.373416 3.475532
  C 3.252118 -0.312148 -0.721892
  H 4.235500 -0.458832 -1.084876
  H 0.642315 0.514104 1.320870
  H 0.527875 -0.874015 0.263155
  H 0.527779 0.772940 -0.403925
  H 3.870589 1.419883 1.209246
  H 3.874552 -0.218796 1.867522
  H 1.775322 0.263243 3.140136
  H 1.775643 1.946236 2.467087
  H 2.108572 -0.368419 -0.863313
 15
 69.291480
  C 0.947683 0.128026 0.367122
  C 2.472334 0.083468 0.259369
  C 3.238744 0.609385 1.562495
  C 2.377869 1.069497 2.716455
  H 3.068145 1.379901 3.492429
  C 3.268751 -0.312718 -0.721661
  H 4.231154 -0.476444 -1.126441
  H 0.641666 0.519697 1.329226
  H 0.523315 -0.868049 0.267702
  H 0.524445 0.771229 -0.398409
  H 3.864620 1.426280 1.211438
  H 3.870470 -0.219998 1.872523
  H 1.769099 0.273246 3.138023
  H 1.767980 1.935483 2.474161
  H 2.107820 -0.353601 -0.824885
 15
 72.821933
  C 0.942616 0.129289 0.367634
  C 2.473638 0.084752 0.262389
  C 3.230884 0.611349 1.566163
  C 2.372636 1.070306 2.719989
  H 3.063958 1.382478 3.499735
  C 3.279009 -0.311352 -0.717279
  H 4.227405 -0.486703 -1.150272
  H 0.641279 0.522177 1.329535
  H 0.515069 -0.870347 0.269496
  H 0.519407 0.772904 -0.397361
  H 3.858480 1.429438 1.219354
  H 3.867085 -0.216101 1.879857
  H 1.764324 0.273480 3.139819
  H 1.760746 1.936115 2.476817
  H 2.098382 -0.338805 -0.787512
 15
 73.669655
  C 0.938179 0.104677 0.381500
  C 2.472407 0.059955 0.276582
  C 3.230307 0.608124 1.572792
  C 2.367442 1.086468 2.713155
  H 3.054526 1.406284 3.497934
  C 3.278137 -0.317843 -0.704209
  H 4.216153 -0.512066 -1.151845
  H 0.643757 0.450626 1.363447
  H 0.505704 -0.887077 0.235770
  H 0.513934 0.790716 -0.352429
  H 3.868993 1.419333 1.227375
  H 3.856771 -0.220509 1.899216
  H 1.750057 0.297722 3.135132
  H 1.762208 1.952071 2.453387
  H 2.092019 -0.225465 -0.808865
 15
 75.853417
  C 0.920633 0.097218 0.387778
  C 2.448804 0.075401 0.272852
  C 3.221084 0.610383 1.565574
  C 2.369553 1.098618 2.712988
  H 3.065013 1.410617 3.492465
  C 3.286732 -0.318410 -0.687492
  H 4.230897 -0.522702 -1.117326
  H 0.621811 0.425062 1.374430
  H 0.505408 -0.897033 0.225577
  H 0.484093 0.788244 -0.334117
  H 3.867694 1.412668 1.225779
  H 3.837863 -0.234532 1.883392
  H 1.743681 0.316760 3.139444
  H 1.774060 1.967964 2.454610
  H 2.104646 -0.169209 -0.806191
 15
 77.434780
  C 0.914001 0.093680 0.395955
  C 2.442582 0.092565 0.269905
  C 3.218261 0.617009 1.560510
  C 2.365557 1.104693 2.709537
  H 3.058363 1.419543 3.490177
  C 3.287474 -0.339480 -0.676380
  H 4.231428 -0.572134 -1.089617
  H 0.622210 0.395796 1.392533
  H 0.510042 -0.902708 0.211821
  H 0.460796 0.794670 -0.304858
  H 3.872284 1.420503 1.227849
  H 3.829733 -0.226732 1.876228
  H 1.742053 0.320921 3.133933
  H 1.765237 1.970619 2.448563
  H 2.103210 -0.083292 -0.802597
 15
 77.960638
  C 0.900162 0.087256 0.399611
  C 2.426899 0.103088 0.275205
  C 3.215726 0.627373 1.552170
  C 2.367051 1.112127 2.708544
  H 3.060434 1.435950 3.483416
  C 3.286918 -0.373406 -0.645375
  H 4.228012 -0.638690 -1.049518
  H 0.607161 0.355206 1.405760
  H 0.508465 -0.906733 0.182050
  H 0.437492 0.806625 -0.276580
  H 3.864863 1.436836 1.219707
  H 3.831141 -0.212985 1.864081
  H 1.753720 0.321801 3.139275
  H 1.755053 1.969300 2.447483
  H 2.120882 0.034050 -0.800545
