 19
 0.000000
  C 0.975348 0.184068 0.510305
  C 2.425022 0.116720 0.342429
  H 3.077958 0.438320 1.142951
  C 2.978237 -0.353203 -0.827829
  C 4.369586 -0.423649 -1.003835
  C 5.073976 -0.864060 -2.102261
  C 4.652691 -1.385181 -3.401856
  C 3.184594 -1.527726 -3.757411
  H 3.098422 -1.931148 -4.763741
  H 6.153890 -0.825461 -2.006284
  H 0.658024 0.570848 1.473361
  H 0.540381 -0.808582 0.365758
  H 0.540196 0.800937 -0.280667
  H 2.313679 -0.668928 -1.614063
  H 4.964082 -0.086319 -0.163183
  H 5.150639 -2.359509 -3.515814
  H 5.150742 -0.759639 -4.157322
  H 2.679687 -0.565140 -3.740401
  H 2.679729 -2.212014 -3.080211
 19
 3.704892
  C 0.942752 0.190942 0.527363
  C 2.371717 0.109511 0.324768
  H 3.044353 0.426284 1.113586
  C 2.942152 -0.356857 -0.836665
  C 4.343849 -0.422079 -1.000109
  C 5.073814 -0.863274 -2.100541
  C 4.673379 -1.387789 -3.408419
  C 3.212211 -1.540165 -3.788296
  H 3.146242 -1.943822 -4.795234
  H 6.150686 -0.816529 -1.984305
  H 0.920772 0.587913 1.515993
  H 0.442203 -0.784717 0.439917
  H 0.442449 0.835296 -0.210582
  H 2.287214 -0.675468 -1.629898
  H 4.927995 -0.081098 -0.150526
  H 5.183414 -2.355810 -3.519541
  H 5.183472 -0.764832 -4.157628
  H 2.700701 -0.580719 -3.783070
  H 2.700785 -2.230381 -3.121757
 19
 13.004197
  C 0.916555 0.184525 0.512217
  C 2.348387 0.096067 0.291108
  H 3.019394 0.409514 1.070730
  C 2.932224 -0.364712 -0.856385
  C 4.331126 -0.422677 -1.002575
  C 5.068239 -0.858568 -2.088800
  C 4.677323 -1.381342 -3.391759
  C 3.218623 -1.534732 -3.775606
  H 3.155873 -1.939650 -4.785251
  H 6.147331 -0.808699 -1.964103
  H 1.119621 0.565884 1.461582
  H 0.402862 -0.754048 0.478684
  H 0.402495 0.839219 -0.161316
  H 2.288685 -0.686940 -1.657328
  H 4.904183 -0.079447 -0.148081
  H 5.191190 -2.349048 -3.502957
  H 5.191950 -0.759488 -4.140974
  H 2.706569 -0.576115 -3.771986
  H 2.705940 -2.224762 -3.110790
 19
 25.761473
  C 0.888659 0.183324 0.509024
  C 2.330544 0.097828 0.295649
  H 3.019330 0.409132 1.070297
  C 2.926158 -0.365971 -0.859503
  C 4.329812 -0.422752 -1.002817
  C 5.068509 -0.856034 -2.082631
  C 4.683309 -1.379136 -3.386302
  C 3.226683 -1.534981 -3.776053
  H 3.168499 -1.939227 -4.784208
  H 6.144198 -0.804665 -1.954311
  H 1.263869 0.551155 1.425014
  H 0.361118 -0.764876 0.505383
  H 0.361066 0.865851 -0.149173
  H 2.283949 -0.689502 -1.663945
  H 4.900630 -0.078704 -0.146410
  H 5.199237 -2.345955 -3.495395
  H 5.199930 -0.756443 -4.133413
  H 2.712817 -0.577357 -3.774033
  H 2.712297 -2.225639 -3.113095
 19
 39.164327
  C 0.867670 0.179820 0.499050
  C 2.326188 0.103109 0.310427
  H 3.031770 0.410842 1.077852
  C 2.927874 -0.363219 -0.851856
  C 4.322969 -0.419281 -0.994329
  C 5.063867 -0.852281 -2.074484
  C 4.682482 -1.376463 -3.380170
  C 3.229574 -1.535581 -3.776147
  H 3.177044 -1.939718 -4.783796
  H 6.138302 -0.799719 -1.944098
  H 1.366198 0.531668 1.378780
  H 0.351929 -0.770682 0.504292
  H 0.353017 0.872795 -0.152327
  H 2.285462 -0.687056 -1.658415
  H 4.892188 -0.075627 -0.138946
  H 5.200293 -2.340515 -3.487942
  H 5.200292 -0.754566 -4.124744
  H 2.712831 -0.578400 -3.776394
  H 2.713213 -2.227951 -3.114823
 19
 51.467217
  C 0.843461 0.178189 0.471657
  C 2.333316 0.094768 0.313053
  H 3.047527 0.419563 1.064504
  C 2.929593 -0.386702 -0.832642
  C 4.336026 -0.422144 -0.986726
  C 5.068922 -0.845828 -2.066586
  C 4.684471 -1.371301 -3.375900
  C 3.228595 -1.528652 -3.763380
  H 3.170006 -1.932370 -4.773393
  H 6.147725 -0.793320 -1.941162
  H 1.437882 0.510868 1.314813
  H 0.331879 -0.774045 0.489067
  H 0.329996 0.906083 -0.138880
  H 2.292107 -0.722412 -1.632654
  H 4.906677 -0.069714 -0.135557
  H 5.200040 -2.338301 -3.485455
  H 5.195499 -0.743410 -4.122959
  H 2.714292 -0.574756 -3.760167
  H 2.718782 -2.220134 -3.102763
 19
 58.759646
  C 0.841614 0.171792 0.416118
  C 2.353136 0.090622 0.323035
  H 3.076106 0.456071 1.064813
  C 2.938706 -0.423093 -0.800608
  C 4.351025 -0.426061 -0.969966
  C 5.069921 -0.839206 -2.050454
  C 4.684262 -1.365907 -3.368124
  C 3.213341 -1.518294 -3.750733
  H 3.148591 -1.916700 -4.765589
  H 6.149949 -0.787046 -1.934216
  H 1.487444 0.493890 1.249519
  H 0.355821 -0.789421 0.407839
  H 0.319348 0.935956 -0.134035
  H 2.305450 -0.792028 -1.593248
  H 4.921938 -0.052650 -0.125144
  H 5.195919 -2.333411 -3.481354
  H 5.186019 -0.727702 -4.111836
  H 2.693983 -0.552583 -3.738156
  H 2.702933 -2.224036 -3.084082
 19
 62.722585
  C 0.842190 0.171264 0.374585
  C 2.369383 0.095816 0.347144
  H 3.085371 0.480949 1.073349
  C 2.947848 -0.438672 -0.770375
  C 4.359706 -0.426259 -0.958329
  C 5.064019 -0.833125 -2.040186
  C 4.675689 -1.362546 -3.368469
  C 3.210716 -1.521475 -3.746660
  H 3.147684 -1.909843 -4.756211
  H 6.144951 -0.775645 -1.932602
  H 1.527375 0.473770 1.221916
  H 0.371605 -0.798349 0.312480
  H 0.316448 0.978322 -0.103691
  H 2.318504 -0.828765 -1.547578
  H 4.934082 -0.042363 -0.125122
  H 5.186653 -2.326271 -3.484064
  H 5.165834 -0.715003 -4.108697
  H 2.693483 -0.571641 -3.727571
  H 2.713014 -2.228054 -3.095154
 19
 65.464189
  C 0.839127 0.171253 0.339849
  C 2.378800 0.090892 0.356494
  H 3.102329 0.491833 1.085394
  C 2.955151 -0.445380 -0.759505
  C 4.366533 -0.426721 -0.953292
  C 5.066619 -0.827612 -2.039906
  C 4.675680 -1.356052 -3.364873
  C 3.211125 -1.527411 -3.728250
  H 3.142527 -1.915431 -4.755211
  H 6.138294 -0.760052 -1.942297
  H 1.560495 0.432843 1.196115
  H 0.370739 -0.783435 0.225579
  H 0.320424 1.024929 -0.070956
  H 2.328784 -0.845039 -1.530184
  H 4.943143 -0.035892 -0.124416
  H 5.196404 -2.322213 -3.487191
  H 5.152795 -0.695128 -4.109597
  H 2.681977 -0.576291 -3.697133
  H 2.725797 -2.247556 -3.074218
 19
 67.543090
  C 0.837322 0.177755 0.304664
  C 2.388644 0.084587 0.362534
  H 3.107236 0.504847 1.080181
  C 2.967790 -0.455893 -0.751739
  C 4.376738 -0.428232 -0.947996
  C 5.075081 -0.820584 -2.037751
  C 4.678378 -1.348911 -3.363641
  C 3.203444 -1.532966 -3.712720
  H 3.127291 -1.911268 -4.727648
  H 6.150145 -0.741725 -1.947128
  H 1.590570 0.392700 1.177197
  H 0.359068 -0.769357 0.136411
  H 0.336695 1.064497 -0.037107
  H 2.341925 -0.868734 -1.520397
  H 4.955642 -0.028780 -0.119805
  H 5.205655 -2.310650 -3.491766
  H 5.142399 -0.679591 -4.110757
  H 2.665927 -0.587663 -3.671454
  H 2.731093 -2.262282 -3.056830
 19
 69.387764
  C 0.842869 0.183880 0.290741
  C 2.392751 0.085233 0.373277
  H 3.111765 0.502297 1.088742
  C 2.968088 -0.441222 -0.751593
  C 4.374383 -0.411235 -0.952458
  C 5.074063 -0.809502 -2.038994
  C 4.683817 -1.348661 -3.360745
  C 3.205004 -1.545122 -3.716972
  H 3.135971 -1.932001 -4.725439
  H 6.147936 -0.724380 -1.948760
  H 1.619811 0.345672 1.172582
  H 0.364558 -0.751111 0.066600
  H 0.347988 1.100092 0.031420
  H 2.340187 -0.856917 -1.516518
  H 4.958643 -0.020320 -0.117759
  H 5.215771 -2.306299 -3.477422
  H 5.146802 -0.682963 -4.108392
  H 2.661485 -0.602665 -3.689547
  H 2.732255 -2.271619 -3.057979
 19
 70.398378
  C 0.837254 0.195390 0.266828
  C 2.401165 0.082594 0.379049
  H 3.121464 0.512531 1.092123
  C 2.975427 -0.441501 -0.747894
  C 4.382737 -0.413622 -0.949662
  C 5.080742 -0.807676 -2.039582
  C 4.684929 -1.346006 -3.361606
  C 3.211546 -1.552404 -3.703981
  H 3.137366 -1.935799 -4.715850
  H 6.159208 -0.713324 -1.956111
  H 1.642944 0.308070 1.170877
  H 0.356411 -0.724611 -0.004746
  H 0.345494 1.130218 0.077538
  H 2.345642 -0.862341 -1.513420
  H 4.963009 -0.019954 -0.126508
  H 5.220953 -2.297585 -3.484457
  H 5.135330 -0.675623 -4.110605
  H 2.661487 -0.614421 -3.666760
  H 2.751551 -2.286055 -3.044085
 19
 70.494128
  C 0.844796 0.216584 0.242726
  C 2.404274 0.074759 0.389798
  H 3.122415 0.513803 1.100334
  C 2.979262 -0.436504 -0.748459
  C 4.382202 -0.398295 -0.955325
  C 5.081994 -0.796698 -2.043581
  C 4.688197 -1.345708 -3.360940
  C 3.216512 -1.568111 -3.699579
  H 3.145009 -1.959261 -4.711782
  H 6.157823 -0.693283 -1.963324
  H 1.662305 0.237734 1.175029
  H 0.359454 -0.673734 -0.103820
  H 0.354975 1.168274 0.166571
  H 2.351714 -0.858587 -1.509021
  H 4.969822 -0.008771 -0.123317
  H 5.230737 -2.291483 -3.478197
  H 5.129457 -0.678471 -4.112812
  H 2.658660 -0.635314 -3.667581
  H 2.765848 -2.301227 -3.035074
 19
 71.222518
  C 0.856332 0.232947 0.209345
  C 2.413723 0.068261 0.401707
  H 3.123663 0.516957 1.113420
  C 2.989741 -0.445604 -0.737286
  C 4.390064 -0.403037 -0.946120
  C 5.088492 -0.801647 -2.036830
  C 4.686283 -1.343920 -3.358797
  C 3.216318 -1.575889 -3.683505
  H 3.136284 -1.953493 -4.704807
  H 6.163093 -0.686396 -1.964396
  H 1.677791 0.197391 1.172095
  H 0.368254 -0.642521 -0.173845
  H 0.379072 1.190404 0.179345
  H 2.353580 -0.863244 -1.509802
  H 4.977056 0.012261 -0.128208
  H 5.237376 -2.285702 -3.490943
  H 5.113893 -0.665719 -4.109103
  H 2.650176 -0.650166 -3.630172
  H 2.782315 -2.321116 -3.026406
