18

C -3.515389 0.975885 -0.122879
C -2.0659 0.599462 -0.036328
C -1.647324 -0.46119 0.631104
C -0.23743 -0.936503 0.793236
C 0.81568 -0.075098 0.105839
C 2.224391 -0.616074 0.342744
H 2.547962246718403 -0.36629830173880407 0.12157326744476177
H -4.102753 0.131802 -0.479155
H -3.667355 1.821367 -0.78616
H -3.895397 1.24198 0.863424
H -1.369803 1.24466 -0.552094
H -2.387883 -1.080031 1.124976
H -0.015026 -0.992104 1.863244
H -0.175991 -1.957532 0.404275
H 0.615662 -0.050406 -0.966676
H 0.756104 0.944563 0.489476
H 2.422925 -0.605772 1.416278
H 2.265011 -1.656615 0.017758
