17

C 0.958364 -0.017674 -0.006301
C 2.454151 0.001566 0.011384
C 3.16815 0.814106 0.797879
C 4.606252 0.829927 0.813721
C 5.32719 1.646533 1.602007
C 6.765889 1.66062 1.616202
C 7.484667 2.471607 2.399053
H 8.554257239724983 2.492691021435356 2.4198420145309534
H 0.599064 -0.756052 -0.722293
H 0.560774 0.954144 -0.298889
H 0.561924 -0.282035 0.9741
H 2.955779 -0.687192 -0.655816
H 2.655948 1.500431 1.461289
H 5.110234 0.140004 0.148194
H 4.823696 2.336605 2.267678
H 7.27211 0.971364 0.95132
H 6.98652 3.163732 3.066708
