 17
 0.000000
  C 0.958976 -0.018317 -0.006993
  C 2.454827 0.002100 0.011833
  C 3.168595 0.814033 0.797956
  C 4.605757 0.830665 0.814668
  C 5.327332 1.647247 1.602687
  C 6.765177 1.661932 1.617553
  C 7.482000 2.470527 2.397851
  H 8.554100 2.489639 2.416802
  H 0.599693 -0.755927 -0.722806
  H 0.561262 0.953414 -0.298021
  H 0.562398 -0.282104 0.973091
  H 2.957289 -0.685798 -0.654799
  H 2.656653 1.500041 1.461027
  H 5.109646 0.140877 0.149554
  H 4.824123 2.337176 2.267939
  H 7.270757 0.972555 0.952837
  H 6.986385 3.162318 3.064900
 17
 -0.364866
  C 0.955979 -0.025662 -0.008582
  C 2.449513 0.004711 -0.008510
  C 3.172421 0.795387 0.790358
  C 4.605048 0.845739 0.795902
  C 5.326061 1.633639 1.612543
  C 6.763795 1.680476 1.615998
  C 7.478694 2.460491 2.423979
  H 8.556634 2.472659 2.402277
  H 0.580859 -0.911510 -0.515057
  H 0.560538 0.851146 -0.522825
  H 0.572429 -0.012165 1.008665
  H 2.950945 -0.639582 -0.718866
  H 2.665523 1.446163 1.492810
  H 5.114511 0.200389 0.091057
  H 4.819454 2.279389 2.317196
  H 7.264883 1.032028 0.909060
  H 7.005117 3.116340 3.137926
 17
 -0.584993
  C 0.954674 -0.007603 0.013160
  C 2.444687 0.036360 -0.066164
  C 3.187355 0.773718 0.761416
  C 4.621101 0.842203 0.771294
  C 5.328023 1.617467 1.611114
  C 6.764332 1.681768 1.622931
  C 7.465634 2.451571 2.453157
  H 8.541485 2.477727 2.437202
  H 0.582921 -0.991356 -0.266256
  H 0.508741 0.724412 -0.661016
  H 0.632196 0.214415 1.030387
  H 2.915975 -0.575227 -0.823796
  H 2.687925 1.394866 1.496829
  H 5.142585 0.219525 0.054155
  H 4.809490 2.239904 2.329705
  H 7.277170 1.056700 0.902490
  H 6.980960 3.083715 3.179243
 17
 -0.264918
  C 0.960133 -0.009314 0.027685
  C 2.439949 0.092754 -0.116213
  C 3.183626 0.799339 0.737095
  C 4.617987 0.862675 0.750227
  C 5.326100 1.617092 1.607841
  C 6.762929 1.665437 1.633010
  C 7.465310 2.413787 2.481779
  H 8.541430 2.429392 2.474598
  H 0.657966 -1.057086 0.018196
  H 0.434570 0.496462 -0.780588
  H 0.677183 0.412064 0.990728
  H 2.900664 -0.462069 -0.922265
  H 2.686077 1.422866 1.471492
  H 5.139324 0.243494 0.029995
  H 4.808102 2.235020 2.330669
  H 7.275258 1.048099 0.905520
  H 6.981271 3.037921 3.215134
 17
 3.791939
  C 0.978116 -0.049908 0.074227
  C 2.431724 0.153706 -0.182092
  C 3.170529 0.886674 0.663761
  C 4.612046 0.927089 0.692956
  C 5.322888 1.640069 1.585360
  C 6.753501 1.628481 1.656638
  C 7.459207 2.333449 2.541778
  H 8.534002 2.310484 2.563482
  H 0.824418 -1.092703 0.368721
  H 0.340119 0.155476 -0.777853
  H 0.729361 0.533473 0.958059
  H 2.863352 -0.293850 -1.066819
  H 2.676298 1.611298 1.302758
  H 5.131910 0.265766 0.007917
  H 4.809321 2.292598 2.278488
  H 7.262597 1.003701 0.935215
  H 6.977944 2.963605 3.271578
 17
 16.450879
  C 1.014626 -0.047050 0.116542
  C 2.430775 0.195251 -0.282561
  C 3.174955 0.879458 0.607172
  C 4.604973 0.871606 0.698018
  C 5.304463 1.658176 1.538178
  C 6.730189 1.595822 1.687614
  C 7.420190 2.341844 2.550385
  H 8.486012 2.243328 2.664868
  H 0.916163 -1.083696 0.464223
  H 0.257587 0.150699 -0.629491
  H 0.967246 0.468582 1.082178
  H 2.800025 -0.125830 -1.244108
  H 2.712309 1.710599 1.127083
  H 5.132561 0.141006 0.093985
  H 4.778922 2.355115 2.178033
  H 7.248584 0.893450 1.046624
  H 6.930300 3.045874 3.203086
 17
 32.687655
  C 1.075225 -0.071481 0.146166
  C 2.414821 0.274555 -0.385027
  C 3.154388 0.961979 0.525065
  C 4.561285 0.845437 0.728361
  C 5.263381 1.607784 1.592575
  C 6.689067 1.520382 1.759959
  C 7.393137 2.316225 2.561068
  H 8.466578 2.262458 2.619554
  H 1.088431 -1.062021 0.624951
  H 0.248978 -0.018687 -0.534768
  H 1.174019 0.503996 1.089998
  H 2.747354 0.015204 -1.376614
  H 2.721209 1.827296 0.998749
  H 5.085989 0.103388 0.129687
  H 4.758741 2.392933 2.135303
  H 7.197018 0.767260 1.166526
  H 6.918243 3.076323 3.155163
 17
 61.935580
  C 1.124473 -0.094516 0.141609
  C 2.403356 0.273857 -0.436166
  C 3.124278 0.908780 0.550596
  C 4.550585 0.857585 0.694207
  C 5.256115 1.657599 1.520129
  C 6.670663 1.542478 1.729267
  C 7.362859 2.302967 2.577325
  H 8.424669 2.182686 2.717876
  H 1.105196 -1.001735 0.775018
  H 0.221877 -0.022408 -0.467447
  H 1.486611 0.439078 1.156714
  H 2.709967 0.113513 -1.442251
  H 2.722807 1.872780 0.873266
  H 5.063089 0.065030 0.161836
  H 4.736210 2.413358 2.100414
  H 7.178996 0.784193 1.148670
  H 6.880084 3.060015 3.176820
 17
 80.187428
  C 1.175841 -0.167684 0.099933
  C 2.343905 0.331373 -0.487342
  C 3.060988 0.997546 0.548908
  C 4.494274 0.888264 0.719568
  C 5.221177 1.651834 1.554610
  C 6.636256 1.498643 1.753665
  C 7.359582 2.261487 2.571983
  H 8.420257 2.123221 2.694360
  H 1.236084 -0.985677 0.803969
  H 0.246927 -0.217235 -0.470305
  H 1.842452 0.528447 1.262010
  H 2.653172 0.224422 -1.516176
  H 2.669642 1.959967 0.865567
  H 4.982034 0.094162 0.167588
  H 4.733895 2.433797 2.124445
  H 7.115692 0.710939 1.185816
  H 6.909088 3.053177 3.148487
 17
 63.005160
  C 1.202637 -0.242268 0.030583
  C 2.281422 0.374814 -0.503189
  C 3.011162 1.039126 0.597411
  C 4.469562 0.919419 0.744462
  C 5.206451 1.656886 1.571326
  C 6.625351 1.480833 1.755019
  C 7.362804 2.223253 2.567166
  H 8.419655 2.071196 2.675759
  H 1.301540 -0.986641 0.800893
  H 0.268531 -0.370503 -0.499455
  H 2.146776 0.598727 1.321334
  H 2.587758 0.358532 -1.533289
  H 2.618513 2.027865 0.892009
  H 4.942448 0.123615 0.175306
  H 4.735768 2.434541 2.160136
  H 7.086761 0.683930 1.181637
  H 6.930555 3.022023 3.147656
 17
 35.930242
  C 1.191595 -0.297383 -0.091581
  C 2.236661 0.457800 -0.442906
  C 2.951037 1.042941 0.735700
  C 4.424382 0.907276 0.830538
  C 5.205348 1.687851 1.566962
  C 6.624190 1.467307 1.743727
  C 7.394347 2.207650 2.526841
  H 8.461024 2.063774 2.582137
  H 1.268324 -1.006562 0.718636
  H 0.382288 -0.546220 -0.757181
  H 2.278998 0.579025 1.502644
  H 2.611882 0.559422 -1.441806
  H 2.613064 2.070936 0.952857
  H 4.853109 0.052865 0.318404
  H 4.767457 2.497383 2.143427
  H 7.059457 0.667246 1.156177
  H 6.989636 3.022057 3.107639
 17
 18.697981
  C 1.220117 -0.336184 -0.216415
  C 2.251079 0.472504 -0.384559
  C 2.920714 1.003296 0.847830
  C 4.395766 0.850725 0.934600
  C 5.197148 1.640061 1.651867
  C 6.631016 1.478765 1.720880
  C 7.430601 2.266710 2.431049
  H 8.492957 2.102593 2.486306
  H 1.105300 -0.935151 0.673324
  H 0.510870 -0.602132 -0.987077
  H 2.336799 0.509168 1.644300
  H 2.666624 0.709551 -1.351757
  H 2.613278 2.044350 1.017667
  H 4.822262 0.058279 0.332362
  H 4.774527 2.440685 2.246040
  H 7.045556 0.655576 1.152375
  H 7.041174 3.083400 3.016787
 17
 9.491490
  C 1.240814 -0.334336 -0.368357
  C 2.273406 0.486404 -0.314567
  C 2.874300 0.965492 0.970410
  C 4.357380 0.804384 1.036043
  C 5.181503 1.637780 1.670888
  C 6.612689 1.454963 1.738651
  C 7.433612 2.282619 2.374593
  H 8.497012 2.120034 2.407533
  H 0.848447 -0.833114 0.502017
  H 0.778896 -0.585316 -1.309128
  H 2.380675 0.419851 1.781787
  H 2.761090 0.823168 -1.219650
  H 2.602497 2.016795 1.120318
  H 4.755985 -0.066487 0.530687
  H 4.784993 2.510120 2.175723
  H 7.005982 0.583767 1.230244
  H 7.066508 3.156071 2.888387
 17
 7.970229
  C 1.342204 -0.376470 -0.435613
  C 2.257734 0.563043 -0.206899
  C 2.808854 0.943482 1.120947
  C 4.293162 0.751768 1.167232
  C 5.160689 1.639691 1.664937
  C 6.589812 1.428356 1.710568
  C 7.450222 2.308183 2.207794
  H 8.510121 2.123102 2.227448
  H 0.907349 -0.988978 0.340507
  H 1.028857 -0.541321 -1.503707
  H 2.352258 0.339392 1.882890
  H 2.665114 1.127606 -1.036722
  H 2.568769 1.991660 1.325383
  H 4.652120 -0.185561 0.761033
  H 4.802583 2.579282 2.067409
  H 6.945193 0.488777 1.306855
  H 7.120748 3.250185 2.615518
 17
 7.731641
  C 1.400003 -0.333163 -0.492741
  C 2.278809 0.609761 -0.212230
  C 2.792539 0.916303 1.161862
  C 4.275693 0.717875 1.225307
  C 5.146216 1.629080 1.657407
  C 6.572248 1.413315 1.713553
  C 7.439808 2.320191 2.151738
  H 8.497919 2.131118 2.181428
  H 0.971033 -0.957151 0.274651
  H 1.065455 -0.519311 -1.499428
  H 2.306991 0.256634 1.888401
  H 2.698476 1.221479 -1.002006
  H 2.550192 1.951734 1.420414
  H 4.627644 -0.246627 0.881711
  H 4.794852 2.595487 1.996636
  H 6.921194 0.447368 1.371378
  H 7.116717 3.288102 2.497498
