 29
 0.000000
  H 1.443660 0.151398 0.429530
  C 2.521939 0.145919 0.415079
  C 3.279431 0.615376 1.582559
  C 2.444692 1.091060 2.766899
  C 3.337144 1.552961 3.915184
  C 3.111949 -0.320217 -0.745769
  C 4.487939 -0.415141 -0.983285
  C 5.139218 -0.873986 -2.126876
  C 4.609724 -1.391111 -3.416010
  C 3.113735 -1.498272 -3.684763
  C 2.872350 -2.059522 -5.083911
  O 6.455599 -0.879711 -2.141389
  H 3.938763 1.433581 1.268074
  H 3.939421 -0.192416 1.921561
  H 1.803283 0.282539 3.122153
  H 1.802643 1.920118 2.463996
  H 3.972590 0.742917 4.265913
  H 2.730129 1.889052 4.752075
  H 3.971875 2.380897 3.607525
  H 2.438839 -0.633556 -1.525346
  H 5.129450 -0.089589 -0.172721
  H 5.058769 -2.382060 -3.550996
  H 5.059524 -0.768759 -4.198468
  H 2.645284 -0.515200 -3.625772
  H 2.644483 -2.167557 -2.962795
  H 3.306304 -1.414497 -5.844250
  H 1.805473 -2.136528 -5.277151
  H 3.305533 -3.051552 -5.187432
  H 6.863483 -0.549795 -1.317694
 29
 -0.268708
  H 1.492626 0.127022 0.531849
  C 2.567526 0.068512 0.457763
  C 3.330599 0.593160 1.597947
  C 2.459105 1.119041 2.737701
  C 3.309248 1.647458 3.888726
  C 3.091515 -0.470321 -0.697565
  C 4.464376 -0.583301 -0.938393
  C 5.131833 -0.927446 -2.114802
  C 4.601632 -1.367915 -3.431694
  C 3.107801 -1.504353 -3.685860
  C 2.868379 -1.978550 -5.120140
  O 6.442875 -0.876505 -2.133862
  H 3.995669 1.395497 1.259646
  H 3.994769 -0.187631 1.984977
  H 1.813465 0.319014 3.106566
  H 1.815402 1.920966 2.369742
  H 3.942735 0.862853 4.296272
  H 2.674780 2.016316 4.690818
  H 3.944018 2.467565 3.559131
  H 2.392079 -0.790681 -1.449378
  H 5.113062 -0.300391 -0.116470
  H 5.085981 -2.328817 -3.643954
  H 5.027701 -0.684201 -4.176434
  H 2.611103 -0.540935 -3.555138
  H 2.671490 -2.236797 -3.004150
  H 3.275657 -1.269976 -5.838665
  H 1.802260 -2.077641 -5.312400
  H 3.332943 -2.946959 -5.293998
  H 6.864784 -0.596785 -1.298095
 29
 1.151080
  H 1.464566 0.105283 0.553028
  C 2.540458 -0.007382 0.492109
  C 3.333781 0.562828 1.591682
  C 2.485796 1.158028 2.711954
  C 3.359918 1.730514 3.824986
  C 3.035435 -0.630668 -0.636300
  C 4.405136 -0.751879 -0.880451
  C 5.098717 -0.978798 -2.068101
  C 4.601164 -1.334266 -3.418202
  C 3.113651 -1.515015 -3.692874
  C 2.899049 -1.888127 -5.159313
  O 6.406729 -0.862480 -2.065648
  H 3.999234 1.343696 1.205241
  H 3.990785 -0.212223 2.001874
  H 1.834455 0.387747 3.128194
  H 1.850406 1.948628 2.307900
  H 3.986527 0.957380 4.261326
  H 2.741412 2.148765 4.616646
  H 4.002830 2.521716 3.447062
  H 2.321224 -0.974058 -1.362544
  H 5.047402 -0.522520 -0.033414
  H 5.130782 -2.255026 -3.703905
  H 5.000433 -0.578276 -4.106624
  H 2.580596 -0.585115 -3.494515
  H 2.706976 -2.315930 -3.069703
  H 3.279503 -1.112190 -5.818692
  H 1.839746 -2.015138 -5.365102
  H 3.405364 -2.821059 -5.403538
  H 6.810126 -0.639861 -1.204303
 29
 4.955587
  H 1.496912 -0.031247 0.569966
  C 2.571146 -0.195688 0.506410
  C 3.349777 0.490751 1.553861
  C 2.479585 1.188086 2.603909
  C 3.335743 1.880426 3.654996
  C 3.044410 -0.934897 -0.551506
  C 4.404612 -0.945641 -0.820832
  C 5.136628 -1.113741 -2.004188
  C 4.630101 -1.309859 -3.383279
  C 3.137321 -1.447689 -3.624920
  C 2.862671 -1.636656 -5.113134
  O 6.448209 -1.037870 -1.972921
  H 4.003305 1.236475 1.087913
  H 4.018176 -0.223002 2.046650
  H 1.841958 0.453511 3.100332
  H 1.840484 1.930187 2.126144
  H 3.957126 1.173011 4.193650
  H 2.707787 2.405766 4.365395
  H 3.983097 2.630231 3.191854
  H 2.313253 -1.339244 -1.226293
  H 5.063664 -0.799852 0.031123
  H 5.145366 -2.188567 -3.787410
  H 5.015785 -0.468815 -3.978586
  H 2.613406 -0.561079 -3.281264
  H 2.758089 -2.323472 -3.101092
  H 3.206633 -0.783113 -5.686047
  H 1.800573 -1.739485 -5.286167
  H 3.349099 -2.528489 -5.491444
  H 6.846682 -0.926926 -1.090860
 29
 7.942380
  H 1.563118 -0.072025 0.467256
  C 2.629847 -0.272607 0.496711
  C 3.362725 0.481272 1.522851
  C 2.449443 1.238544 2.499979
  C 3.272656 1.976456 3.551368
  C 3.127254 -1.132556 -0.447905
  C 4.500556 -1.110550 -0.765108
  C 5.179499 -1.232953 -1.969426
  C 4.633231 -1.298649 -3.347237
  C 3.129096 -1.399711 -3.559337
  C 2.821269 -1.451281 -5.052465
  O 6.496455 -1.223865 -1.973198
  H 4.034290 1.207039 1.046457
  H 4.023882 -0.190410 2.075381
  H 1.777399 0.531799 2.993233
  H 1.842822 1.961641 1.948524
  H 3.874091 1.280587 4.139212
  H 2.624451 2.525466 4.225446
  H 3.939692 2.689578 3.085734
  H 2.418555 -1.591013 -1.113157
  H 5.158941 -1.045436 0.095101
  H 5.123763 -2.150002 -3.839801
  H 5.010589 -0.413527 -3.870705
  H 2.620012 -0.540866 -3.121513
  H 2.755772 -2.324170 -3.111438
  H 3.164677 -0.552710 -5.558125
  H 1.745539 -1.532874 -5.210482
  H 3.282206 -2.310911 -5.511146
  H 6.919254 -1.202793 -1.095743
 29
 13.655762
  H 1.667735 0.032658 0.226088
  C 2.691320 -0.287229 0.409001
  C 3.393430 0.460727 1.457555
  C 2.454157 1.301188 2.327065
  C 3.225379 2.005268 3.443061
  C 3.179682 -1.304337 -0.363059
  C 4.551361 -1.228066 -0.698357
  C 5.209595 -1.325610 -1.911354
  C 4.636443 -1.304542 -3.279380
  C 3.129182 -1.396111 -3.468970
  C 2.774714 -1.288009 -4.950896
  O 6.526159 -1.344475 -1.939486
  H 4.152942 1.118954 1.022705
  H 3.943771 -0.247436 2.082737
  H 1.691801 0.660198 2.771532
  H 1.954418 2.046399 1.713175
  H 3.727166 1.281286 4.092145
  H 2.545682 2.596293 4.055138
  H 3.973615 2.681205 3.029365
  H 2.483746 -1.838999 -0.985940
  H 5.218867 -1.160095 0.160240
  H 5.123882 -2.116685 -3.834761
  H 5.001981 -0.386360 -3.748260
  H 2.630999 -0.581793 -2.936316
  H 2.754053 -2.347846 -3.085137
  H 3.101077 -0.331939 -5.361144
  H 1.697078 -1.354742 -5.086662
  H 3.235477 -2.082377 -5.520737
  H 6.965236 -1.411227 -1.071323
 29
 25.232221
  H 1.900134 0.099501 -0.039339
  C 2.807443 -0.394786 0.318839
  C 3.457278 0.326856 1.424053
  C 2.495874 1.310704 2.101008
  C 3.189216 2.067077 3.236637
  C 3.188832 -1.552740 -0.286243
  C 4.577585 -1.375949 -0.614889
  C 5.217342 -1.349862 -1.825960
  C 4.617618 -1.268295 -3.189573
  C 3.105900 -1.344142 -3.344688
  C 2.713270 -1.086269 -4.797322
  O 6.538666 -1.304105 -1.870259
  H 4.333911 0.885138 1.087914
  H 3.806349 -0.406197 2.157284
  H 1.644959 0.759857 2.510799
  H 2.102844 2.022251 1.371398
  H 3.578694 1.377067 3.980044
  H 2.480060 2.733137 3.731532
  H 4.008751 2.672008 2.856486
  H 2.506849 -2.108413 -0.909451
  H 5.224483 -1.361864 0.258166
  H 5.085072 -2.061834 -3.788915
  H 4.977870 -0.336207 -3.633628
  H 2.625734 -0.589797 -2.717522
  H 2.744500 -2.326800 -3.057456
  H 3.016459 -0.090082 -5.111156
  H 1.638902 -1.168783 -4.919003
  H 3.185351 -1.810723 -5.461972
  H 6.985598 -1.357868 -1.003655
 29
 39.428128
  H 2.150639 0.106775 -0.218160
  C 2.983996 -0.451696 0.224980
  C 3.556988 0.262002 1.390169
  C 2.585295 1.324568 1.907011
  C 3.160313 2.031454 3.127968
  C 3.138465 -1.744571 -0.218614
  C 4.524878 -1.411496 -0.524517
  C 5.157901 -1.284235 -1.743826
  C 4.566224 -1.154322 -3.101316
  C 3.059538 -1.225629 -3.275604
  C 2.701968 -1.048632 -4.745411
  O 6.479754 -1.256934 -1.785973
  H 4.498288 0.766662 1.138954
  H 3.777165 -0.462831 2.176888
  H 1.636780 0.862955 2.177020
  H 2.393648 2.060547 1.130651
  H 3.357812 1.321208 3.931474
  H 2.455829 2.775385 3.499932
  H 4.092112 2.541612 2.880004
  H 2.435380 -2.295243 -0.813652
  H 5.166843 -1.455292 0.355399
  H 5.038095 -1.923463 -3.724526
  H 4.930009 -0.200714 -3.507790
  H 2.567847 -0.440472 -2.706003
  H 2.685607 -2.192893 -2.948923
  H 3.047157 -0.085715 -5.114992
  H 1.623578 -1.097138 -4.882364
  H 3.155139 -1.830582 -5.354100
  H 6.927996 -1.340913 -0.926794
 29
 39.552793
  H 2.554655 0.103805 -0.476497
  C 3.205249 -0.523399 0.132298
  C 3.625721 0.186315 1.399888
  C 2.691122 1.359447 1.719929
  C 3.128602 2.063723 3.003729
  C 3.120770 -1.908811 -0.161250
  C 4.485389 -1.421789 -0.440907
  C 5.117502 -1.213716 -1.692579
  C 4.503303 -1.060239 -3.032190
  C 2.994951 -1.211542 -3.218455
  C 2.627016 -0.956983 -4.678020
  O 6.419722 -1.145670 -1.744625
  H 4.638471 0.579041 1.316871
  H 3.606743 -0.519548 2.231316
  H 1.666864 0.995553 1.841232
  H 2.700836 2.078180 0.896946
  H 3.129253 1.375815 3.838335
  H 2.448376 2.878527 3.239933
  H 4.129822 2.478517 2.899189
  H 2.426281 -2.431956 -0.784997
  H 5.149065 -1.504278 0.413408
  H 5.012106 -1.780430 -3.681973
  H 4.818075 -0.078621 -3.409369
  H 2.452078 -0.500084 -2.599373
  H 2.683762 -2.222574 -2.958813
  H 2.899023 0.054420 -4.978773
  H 1.557573 -1.075070 -4.823491
  H 3.134131 -1.654162 -5.333096
  H 6.895672 -1.256990 -0.897915
 29
 41.432871
  H 2.521781 -0.088923 -0.422564
  C 3.202146 -0.681379 0.192344
  C 3.612654 0.123436 1.418271
  C 2.709732 1.339628 1.611135
  C 3.096331 2.107287 2.871706
  C 3.236690 -2.054911 -0.174376
  C 4.503225 -1.368204 -0.459903
  C 5.140862 -1.126860 -1.709076
  C 4.504187 -0.965603 -3.036399
  C 2.989575 -1.080903 -3.167225
  C 2.575934 -0.879729 -4.621956
  O 6.435701 -1.031603 -1.758299
  H 4.642501 0.459839 1.334926
  H 3.543663 -0.525171 2.297728
  H 1.666067 1.029287 1.688977
  H 2.799450 2.007978 0.751797
  H 2.998036 1.478094 3.754244
  H 2.449550 2.971001 3.001207
  H 4.123473 2.458124 2.811520
  H 2.506948 -2.631533 -0.698417
  H 5.199779 -1.570327 0.355325
  H 4.990159 -1.675132 -3.715700
  H 4.818035 0.017236 -3.408463
  H 2.496709 -0.325013 -2.558106
  H 2.658303 -2.066727 -2.844315
  H 2.876409 0.100646 -4.983070
  H 1.498085 -0.968286 -4.724246
  H 3.029139 -1.633328 -5.260047
  H 6.915098 -1.126045 -0.911077
