 14
 0.000000
  C 0.947458 0.136100 0.390023
  C 2.406651 0.118321 0.348817
  H 2.960952 0.463673 1.209877
  C 3.070076 -0.331585 -0.771201
  C 4.462071 -0.374460 -0.879205
  C 5.118432 -0.827685 -2.009011
  H 4.594760 -1.182609 -2.890625
  O 6.401741 -0.882590 -2.150287
  H 0.557560 0.513590 1.329680
  H 0.553921 -0.868001 0.212961
  H 0.555419 0.739990 -0.432210
  H 2.463012 -0.665361 -1.602849
  H 5.054422 -0.035972 -0.037866
  H 6.922599 -0.571604 -1.380095
 14
 0.203617
  C 0.941102 0.175747 0.385859
  C 2.393589 0.058068 0.342042
  H 2.953919 0.273981 1.242199
  C 3.072811 -0.352489 -0.783945
  C 4.468450 -0.352648 -0.873158
  C 5.128417 -0.828551 -1.991970
  H 4.570092 -1.229296 -2.832520
  O 6.406124 -0.864890 -2.163614
  H 0.584138 0.579663 1.327012
  H 0.481461 -0.803861 0.221934
  H 0.580548 0.782774 -0.447333
  H 2.506318 -0.750019 -1.615422
  H 5.039566 0.054646 -0.049069
  H 6.940420 -0.510416 -1.422336
 14
 1.792912
  C 0.943223 0.217148 0.375163
  C 2.385058 -0.001027 0.355928
  H 2.924535 0.086060 1.290330
  C 3.072928 -0.369991 -0.780574
  C 4.466689 -0.333796 -0.882464
  C 5.130867 -0.841984 -1.983667
  H 4.579484 -1.313887 -2.791373
  O 6.407709 -0.842509 -2.169395
  H 0.600359 0.631537 1.317543
  H 0.421053 -0.731502 0.208678
  H 0.634444 0.848789 -0.458778
  H 2.516388 -0.833958 -1.585092
  H 5.030689 0.149346 -0.094668
  H 6.935695 -0.428215 -1.454585
 14
 4.704035
  C 0.947534 0.261121 0.364979
  C 2.370201 -0.062363 0.367048
  H 2.876583 -0.091961 1.323741
  C 3.072994 -0.393120 -0.776364
  C 4.463068 -0.321711 -0.889407
  C 5.135269 -0.862288 -1.968762
  H 4.598152 -1.406882 -2.738275
  O 6.409697 -0.814671 -2.174674
  H 0.621111 0.673073 1.314368
  H 0.357688 -0.642237 0.178078
  H 0.699598 0.934159 -0.456013
  H 2.534966 -0.937233 -1.545082
  H 5.012782 0.235633 -0.145421
  H 6.923564 -0.330856 -1.496718
 14
 8.447349
  C 0.951461 0.306334 0.354483
  C 2.348516 -0.119325 0.368819
  H 2.820095 -0.251425 1.339379
  C 3.072642 -0.418245 -0.776400
  C 4.458905 -0.324613 -0.889680
  C 5.144079 -0.885455 -1.948982
  H 4.627409 -1.493414 -2.683104
  O 6.411721 -0.780365 -2.178083
  H 0.643446 0.720477 1.310484
  H 0.296549 -0.549934 0.155410
  H 0.761649 1.011564 -0.453196
  H 2.557515 -1.042729 -1.501225
  H 4.991429 0.303994 -0.184987
  H 6.902768 -0.228606 -1.537282
 14
 10.631494
  C 0.959861 0.339250 0.332148
  C 2.326836 -0.160983 0.355470
  H 2.772969 -0.343993 1.339628
  C 3.061366 -0.462063 -0.782778
  C 4.446654 -0.330325 -0.886338
  C 5.143803 -0.851777 -1.955018
  H 4.640843 -1.467834 -2.689977
  O 6.418961 -0.763162 -2.151837
  H 0.724737 0.894339 1.240986
  H 0.253533 -0.500545 0.318272
  H 0.765952 0.932645 -0.553440
  H 2.569219 -1.116368 -1.492039
  H 4.958442 0.294851 -0.166906
  H 6.899381 -0.204602 -1.505481
 14
 14.280055
  C 0.942750 0.342537 0.317779
  C 2.304879 -0.180238 0.340356
  H 2.717288 -0.420483 1.319924
  C 3.069972 -0.404609 -0.797495
  C 4.456344 -0.318418 -0.884450
  C 5.152493 -0.845062 -1.948959
  H 4.648046 -1.452971 -2.698076
  O 6.428684 -0.761960 -2.143240
  H 0.782420 1.003714 1.170690
  H 0.224818 -0.479181 0.461296
  H 0.708174 0.845529 -0.608165
  H 2.559181 -1.111385 -1.452069
  H 4.977799 0.301240 -0.162835
  H 6.917052 -0.243697 -1.475291
 14
 21.120420
  C 0.927892 0.354104 0.325675
  C 2.283687 -0.201104 0.351668
  H 2.608514 -0.613676 1.296554
  C 3.101778 -0.321962 -0.762867
  C 4.475504 -0.221079 -0.923815
  C 5.163582 -0.911289 -1.898706
  H 4.674992 -1.687757 -2.486698
  O 6.443106 -0.844906 -2.126982
  H 0.728532 0.850744 1.272530
  H 0.183113 -0.438875 0.265251
  H 0.775715 1.037703 -0.512347
  H 2.552615 -1.063895 -1.370493
  H 5.001313 0.525246 -0.337111
  H 6.910466 -0.161363 -1.604958
 14
 29.280392
  C 0.917736 0.361856 0.295703
  C 2.256177 -0.221051 0.359352
  H 2.546649 -0.608471 1.330886
  C 3.133186 -0.330510 -0.719225
  C 4.485410 -0.192650 -0.945098
  C 5.163086 -0.915992 -1.903089
  H 4.657733 -1.631990 -2.539929
  O 6.439213 -0.833046 -2.148751
  H 0.730858 0.899467 1.222454
  H 0.141834 -0.409172 0.261828
  H 0.797825 1.027002 -0.557313
  H 2.564154 -1.168706 -1.160772
  H 5.008449 0.562342 -0.384720
  H 6.917560 -0.203023 -1.575015
 14
 36.562662
  C 0.917537 0.396969 0.249227
  C 2.224647 -0.240927 0.398164
  H 2.416471 -0.674785 1.383426
  C 3.188677 -0.357570 -0.600204
  C 4.517915 -0.231443 -0.890569
  C 5.172499 -0.957936 -1.865303
  H 4.667892 -1.720187 -2.447081
  O 6.406139 -0.760936 -2.261269
  H 0.678503 0.910414 1.178627
  H 0.124170 -0.352699 0.111941
  H 0.887130 1.084249 -0.584340
  H 2.552521 -1.210533 -0.964862
  H 5.058609 0.548959 -0.369225
  H 6.869605 -0.061206 -1.762759
 14
 43.783511
  C 0.921349 0.400933 0.204520
  C 2.203326 -0.300162 0.404280
  H 2.314037 -0.779135 1.381102
  C 3.245405 -0.318260 -0.482221
  C 4.532725 -0.191223 -0.892752
  C 5.155234 -0.956595 -1.862526
  H 4.660323 -1.778013 -2.361753
  O 6.395339 -0.775759 -2.291437
  H 0.657093 0.897267 1.135798
  H 0.114576 -0.304446 0.000769
  H 0.970053 1.125733 -0.601177
  H 2.521677 -1.226819 -0.702752
  H 5.077523 0.634211 -0.447833
  H 6.831920 -0.009788 -1.882611
 14
 44.069068
  C 0.914869 0.389585 0.182439
  C 2.183581 -0.355347 0.380291
  H 2.275457 -0.872675 1.340310
  C 3.264612 -0.283783 -0.441659
  C 4.547415 -0.181061 -0.886495
  C 5.154293 -0.923779 -1.868719
  H 4.649059 -1.736829 -2.360678
  O 6.389892 -0.752273 -2.298488
  H 0.790618 1.053067 1.038771
  H 0.062429 -0.283392 0.184146
  H 0.918632 0.974679 -0.730734
  H 2.423942 -1.183562 -0.638741
  H 5.085143 0.646860 -0.423677
  H 6.852922 -0.016632 -1.862262
 14
 44.018466
  C 0.943618 0.405147 0.137071
  C 2.194089 -0.402557 0.404898
  H 2.251369 -0.816283 1.414155
  C 3.333717 -0.281663 -0.332833
  C 4.542461 -0.163007 -0.879996
  C 5.129599 -0.935154 -1.866347
  H 4.632642 -1.792197 -2.293856
  O 6.337572 -0.734929 -2.373819
  H 0.602488 0.853331 1.065353
  H 0.141950 -0.231579 -0.226545
  H 1.125536 1.187529 -0.592790
  H 2.305172 -1.302839 -0.370105
  H 5.080865 0.698965 -0.490561
  H 6.795986 0.035394 -1.994590
 14
 43.763130
  C 0.974293 0.424829 0.137287
  C 2.183422 -0.479049 0.394608
  H 2.295995 -0.787051 1.436303
  C 3.314035 -0.343428 -0.359589
  C 4.504219 -0.186909 -0.921964
  C 5.153249 -0.942339 -1.882523
  H 4.715101 -1.835856 -2.293554
  O 6.356904 -0.685230 -2.376406
  H 0.551853 0.745532 1.083447
  H 0.196142 -0.096484 -0.410790
  H 1.259064 1.301543 -0.433626
  H 2.097740 -1.394495 -0.293918
  H 4.979819 0.722900 -0.549257
  H 6.762712 0.121551 -2.018078
