12

C 0.908957 0.046942 0.265658
C 2.403138 0.059003 0.084597
H 2.992170262569991 0.009405701355781122 0.9764944725936127
C 2.999883 0.128458 -1.121712
C 2.353543 0.205696 -2.494366
H 1.2945713340189011 0.21444141139393774 -2.647344849612508
H 4.0679449840640185 0.1312277483911067 -1.186023170811005
H 0.600724 -0.008362 1.30488
H 0.465268 -0.821928 -0.2171
H 0.466885 0.962034 -0.121127
H 2.740108 -0.643381 -3.069554
H 2.740336 1.113791 -2.970791
