 14
 0.000000
  H 1.412342 0.111432 0.327374
  C 2.488096 0.097934 0.293886
  H 3.036397 0.443569 1.153532
  C 3.104382 -0.356529 -0.836637
  C 4.498933 -0.408473 -0.966754
  C 5.201914 -0.861608 -2.096449
  C 4.590463 -1.358279 -3.334729
  H 3.509691 -1.354386 -3.326229
  O 6.498296 -0.862998 -2.100367
  H 2.489912 -0.687747 -1.660561
  H 5.081947 -0.068200 -0.119756
  H 4.954723 -2.368908 -3.527016
  H 4.955428 -0.761248 -4.172088
  H 6.933156 -0.536990 -1.287238
 14
 1.149536
  H 1.412395 0.272747 0.233447
  C 2.479481 0.136558 0.221119
  H 3.042962 0.655437 0.979234
  C 3.093816 -0.577847 -0.760076
  C 4.492474 -0.561545 -0.897249
  C 5.199797 -0.888366 -2.066586
  C 4.564442 -1.281953 -3.333471
  H 3.484757 -1.220806 -3.313052
  O 6.494556 -0.816325 -2.109265
  H 2.489810 -1.103290 -1.485033
  H 5.061247 -0.199015 -0.049278
  H 4.871952 -2.299778 -3.584088
  H 4.957488 -0.662654 -4.140868
  H 6.943995 -0.569940 -1.276417
 14
 4.946608
  H 1.452249 0.388389 -0.017486
  C 2.505631 0.192512 0.080762
  H 3.043052 0.792020 0.796884
  C 3.130744 -0.719860 -0.696572
  C 4.539882 -0.656265 -0.829154
  C 5.212812 -0.875448 -2.031347
  C 4.529388 -1.182938 -3.299952
  H 3.454595 -1.061823 -3.249652
  O 6.501843 -0.751694 -2.131917
  H 2.559353 -1.388915 -1.324888
  H 5.112533 -0.374942 0.045522
  H 4.768642 -2.209377 -3.587567
  H 4.940637 -0.559595 -4.093079
  H 6.984565 -0.561025 -1.306067
 14
 10.965839
  H 1.534772 0.471808 -0.306692
  C 2.539363 0.177279 -0.039574
  H 3.035371 0.816166 0.669018
  C 3.154258 -0.873770 -0.627287
  C 4.563720 -0.716242 -0.760045
  C 5.207346 -0.857488 -1.985276
  C 4.472904 -1.103567 -3.249100
  H 3.402646 -0.981005 -3.151338
  O 6.505962 -0.780313 -2.126634
  H 2.626580 -1.582422 -1.248268
  H 5.116214 -0.364951 0.105640
  H 4.710017 -2.114037 -3.593889
  H 4.858947 -0.446266 -4.026850
  H 7.007922 -0.611627 -1.298603
 14
 24.332178
  H 1.761009 0.564348 -0.710032
  C 2.659557 0.172523 -0.244803
  H 3.071269 0.817467 0.515145
  C 3.146606 -1.050536 -0.544223
  C 4.542672 -0.722253 -0.696048
  C 5.157499 -0.818067 -1.928821
  C 4.426896 -1.020311 -3.197977
  H 3.359921 -0.881383 -3.093333
  O 6.459067 -0.748510 -2.059313
  H 2.636457 -1.809521 -1.111405
  H 5.125079 -0.471455 0.181270
  H 4.628700 -2.026275 -3.568715
  H 4.822845 -0.340564 -3.952299
  H 6.960212 -0.623136 -1.234573
 14
 34.677595
  H 2.105607 0.598731 -1.002625
  C 2.866603 0.136927 -0.376023
  H 3.238318 0.797588 0.393989
  C 3.105624 -1.211869 -0.449976
  C 4.460512 -0.718247 -0.656017
  C 5.087184 -0.761023 -1.910469
  C 4.362759 -0.963930 -3.181329
  H 3.291479 -0.855615 -3.069992
  O 6.389652 -0.665558 -2.025107
  H 2.583666 -1.996999 -0.959601
  H 5.063265 -0.481063 0.211286
  H 4.584861 -1.959744 -3.569681
  H 4.738665 -0.263621 -3.926158
  H 6.881162 -0.529167 -1.194225
 14
 30.623682
  H 2.374452 0.599441 -1.204732
  C 2.987807 0.126926 -0.443680
  H 3.189948 0.780539 0.393795
  C 3.089926 -1.270888 -0.391330
  C 4.412142 -0.661649 -0.633750
  C 5.050185 -0.722719 -1.903609
  C 4.317598 -0.925726 -3.163256
  H 3.247228 -0.811251 -3.050504
  O 6.338126 -0.647389 -2.017085
  H 2.607115 -2.068489 -0.916506
  H 5.042686 -0.451418 0.222678
  H 4.531908 -1.926873 -3.542879
  H 4.697435 -0.239291 -3.918270
  H 6.846264 -0.519389 -1.190355
 14
 28.919511
  H 2.630449 0.642624 -1.333748
  C 3.073300 0.133485 -0.483718
  H 3.055681 0.750527 0.409986
  C 3.088675 -1.275441 -0.403400
  C 4.406888 -0.639837 -0.626134
  C 5.040296 -0.733719 -1.891948
  C 4.286947 -0.938721 -3.134728
  H 3.215472 -0.900593 -2.992246
  O 6.317327 -0.632646 -2.027446
  H 2.609922 -2.082130 -0.902160
  H 5.045101 -0.513729 0.231734
  H 4.558805 -1.919500 -3.554890
  H 4.612046 -0.212192 -3.885215
  H 6.852227 -0.507078 -1.214314
 14
 28.313559
  H 2.528193 0.613833 -1.306397
  C 3.029706 0.133857 -0.472156
  H 2.986693 0.727526 0.432326
  C 3.128895 -1.281022 -0.397568
  C 4.419224 -0.570511 -0.630483
  C 5.050597 -0.712662 -1.905341
  C 4.296665 -0.918285 -3.148912
  H 3.227022 -0.800297 -3.025287
  O 6.332781 -0.721531 -2.028444
  H 2.673283 -2.113494 -0.884127
  H 5.078085 -0.438383 0.220715
  H 4.506716 -1.919527 -3.528588
  H 4.671394 -0.238644 -3.916995
  H 6.863884 -0.589810 -1.216969
