22
 0
 C 3.26610400 -0.85548900 0.31701800
 C 1.84830600 -0.68956700 -0.24364900
 C 1.39390900 0.69596900 0.04437600
 C 0.02770300 1.03497500 -0.43396500
 C -1.05950000 0.22330700 0.11677600
 O -0.87690400 -0.67248000 0.91906900
 C -2.44979300 0.51415300 -0.33095800
 C -3.43396700 -0.42687500 0.34631100
 H 3.97785700 -0.16866200 -0.13788200
 H 3.60495000 -1.91724900 0.19803200
 H 3.16752600 -0.69535500 1.41390300
 H 1.23550500 -1.42875700 0.29280100
 H 1.93713300 -0.89497800 -1.32634500
 H 1.52931800 0.91633500 1.13296600
 H 2.10288800 1.39452200 -0.48650300
 H 0.02335100 0.97996400 -1.53991600
 H -0.14599500 2.11871000 -0.19430600
 H -2.49397700 0.29607800 -1.42135800
 H -2.75170600 1.55564000 -0.14157200
 H -2.87044000 -1.37402900 0.55582600
 H -3.75015900 -0.02784900 1.31733500
 H -4.28210900 -0.57836200 -0.32448900
