20
 0
 C -3.45731745 2.90702504 -0.25807236
 C -2.63142671 1.74405802 -0.80568355
 C -1.71927194 2.22747430 -1.92872241
 C -1.81593577 1.07871453 0.30161978
 O -1.75434314 1.53792929 1.44341465
 C -1.07545627 -0.18963179 -0.04111230
 H -4.07768455 3.34966757 -1.04436780
 H -2.81472823 3.69480450 0.15116708
 H -4.12149712 2.57063342 0.54547907
 H -3.32533690 0.98931424 -1.19519193
 H -0.96826814 2.93153804 -1.55410612
 H -2.29742096 2.72743459 -2.71306345
 H -1.18354008 1.39426076 -2.39471241
 H -1.33914869 -0.53904065 -1.04216069
 H -1.34927652 -0.96949893 0.67421569
 H 0.00000000 0.00000000 0.00000000
 O 2.97448175 0.17182727 0.05419364
 H 3.16860763 1.14219312 0.10707899
 H 2.00000000 0.00000000 0.00000000
 H 3.38777450 -0.32165329 0.80766988
