 20
 0.000000
  C 1.006695 -0.072292 0.046140
  C 2.502996 -0.082185 0.026720
  C 3.220220 -0.594457 -0.978960
  C 4.658125 -0.604850 -0.999362
  C 5.377906 -1.120359 -2.011392
  C 6.816362 -1.130498 -2.031289
  C 7.534010 -1.642507 -3.036457
  C 9.023964 -1.662293 -3.075293
  H 0.642860 0.393672 0.960902
  H 0.611952 -1.087388 0.006823
  H 0.611950 0.492743 -0.798081
  H 3.001947 0.353596 0.882234
  H 2.710180 -1.028169 -1.830399
  H 5.164593 -0.170127 -0.145931
  H 4.873257 -1.555181 -2.865018
  H 7.323633 -0.696155 -1.178603
  H 7.034653 -2.078635 -3.892633
  H 9.458385 -1.209242 -2.185882
  H 9.382856 -1.116497 -3.949282
  H 9.382855 -2.690153 -3.147687
 20
 3.423935
  C 1.095219 -0.000329 0.166107
  C 2.572993 -0.130159 -0.036956
  C 3.122006 -0.680971 -1.120840
  C 4.544179 -0.702429 -1.169492
  C 5.343738 -1.190705 -2.129310
  C 6.767692 -1.152695 -2.072486
  C 7.564338 -1.636261 -3.023343
  C 9.051856 -1.604647 -2.978812
  H 0.869158 0.484294 1.115638
  H 0.619784 -0.983501 0.156314
  H 0.650174 0.588205 -0.639013
  H 3.194205 0.267098 0.754724
  H 2.514862 -1.095102 -1.940703
  H 4.891762 -0.227586 -0.253918
  H 4.904927 -1.641481 -3.001868
  H 7.197126 -0.699545 -1.195209
  H 7.131366 -2.091335 -3.904427
  H 9.405842 -1.134387 -2.067092
  H 9.444028 -1.054429 -3.833195
  H 9.453219 -2.615928 -3.031364
 20
 13.894375
  C 1.173439 0.027950 0.264887
  C 2.634525 -0.134839 -0.117193
  C 3.034253 -0.717085 -1.247045
  C 4.453699 -0.752797 -1.314941
  C 5.305648 -1.224894 -2.232419
  C 6.733642 -1.162850 -2.099735
  C 7.590309 -1.632617 -3.011392
  C 9.075235 -1.575391 -2.889065
  H 1.074918 0.522614 1.232702
  H 0.683399 -0.948847 0.318275
  H 0.645561 0.621703 -0.487998
  H 3.323459 0.249177 0.616863
  H 2.368909 -1.102159 -1.987910
  H 4.642767 -0.269386 -0.363634
  H 4.916067 -1.684015 -3.132023
  H 7.108273 -0.701089 -1.194554
  H 7.211319 -2.094040 -3.915760
  H 9.373616 -1.099553 -1.957322
  H 9.502775 -1.016096 -3.722747
  H 9.497115 -2.581155 -2.921655
 20
 31.099553
  C 1.238527 0.057748 0.315257
  C 2.696805 -0.159440 -0.146834
  C 2.976721 -0.753581 -1.307954
  C 4.404813 -0.801553 -1.400780
  C 5.287253 -1.259404 -2.294936
  C 6.707465 -1.172802 -2.117133
  C 7.602374 -1.626882 -3.002973
  C 9.088050 -1.543725 -2.831914
  H 1.205588 0.554026 1.282407
  H 0.722688 -0.893391 0.395467
  H 0.699130 0.664447 -0.404154
  H 3.393287 0.221714 0.585319
  H 2.248883 -1.110258 -2.000712
  H 4.447312 -0.305095 -0.420599
  H 4.936075 -1.723620 -3.206653
  H 7.043671 -0.707195 -1.202102
  H 7.258891 -2.095759 -3.924556
  H 9.349400 -1.062530 -1.886683
  H 9.533439 -0.974489 -3.651878
  H 9.529255 -2.543766 -2.851919
 20
 53.006224
  C 1.291858 0.069868 0.334232
  C 2.758055 -0.171709 -0.158406
  C 2.961062 -0.769842 -1.334856
  C 4.383927 -0.819317 -1.428610
  C 5.275004 -1.271346 -2.313511
  C 6.697832 -1.174173 -2.117471
  C 7.603420 -1.619052 -2.988785
  C 9.081252 -1.526016 -2.800842
  H 1.285320 0.565306 1.296778
  H 0.766173 -0.878845 0.424288
  H 0.752120 0.686756 -0.381727
  H 3.426002 0.214481 0.587441
  H 2.190545 -1.114291 -2.009487
  H 4.294149 -0.317676 -0.437583
  H 4.939694 -1.739521 -3.235485
  H 7.020534 -0.705655 -1.195396
  H 7.276799 -2.086616 -3.908794
  H 9.325775 -1.045379 -1.855319
  H 9.532408 -0.953087 -3.614489
  H 9.529587 -2.522160 -2.816123
 20
 77.777521
  C 1.333248 0.076627 0.347086
  C 2.805335 -0.180700 -0.173946
  C 2.941638 -0.781022 -1.355711
  C 4.377256 -0.829657 -1.447635
  C 5.278646 -1.278873 -2.327864
  C 6.690283 -1.173807 -2.116779
  C 7.609295 -1.613396 -2.977949
  C 9.063631 -1.512407 -2.774571
  H 1.349425 0.572720 1.312205
  H 0.808835 -0.865600 0.442591
  H 0.797110 0.696319 -0.360213
  H 3.450988 0.221200 0.604433
  H 2.152485 -1.115557 -2.012682
  H 4.168662 -0.321732 -0.444683
  H 4.963921 -1.747792 -3.250551
  H 6.997995 -0.704891 -1.193975
  H 7.299370 -2.081253 -3.898701
  H 9.288987 -1.035332 -1.835854
  H 9.515608 -0.942647 -3.573485
  H 9.512983 -2.494901 -2.783982
 20
 101.161553
  C 1.318337 0.078395 0.350984
  C 2.831703 -0.174923 -0.161374
  C 2.946092 -0.778853 -1.352063
  C 4.386230 -0.816981 -1.421659
  C 5.274448 -1.270335 -2.309877
  C 6.704475 -1.170015 -2.109324
  C 7.613293 -1.613563 -2.978248
  C 9.091957 -1.518400 -2.786635
  H 1.320989 0.578777 1.325213
  H 0.803058 -0.873416 0.437036
  H 0.792549 0.697221 -0.369699
  H 3.414626 0.244459 0.651567
  H 2.153592 -1.110960 -2.006402
  H 4.069206 -0.297098 -0.396086
  H 4.951757 -1.740995 -3.235254
  H 7.027690 -0.697065 -1.179418
  H 7.289809 -2.081452 -3.898560
  H 9.334524 -1.035405 -1.836632
  H 9.544791 -0.944142 -3.599170
  H 9.542374 -2.514669 -2.800164
 20
 121.708783
  C 1.276803 0.073779 0.343347
  C 2.853603 -0.158788 -0.128402
  C 2.984687 -0.763431 -1.324768
  C 4.432976 -0.792442 -1.371763
  C 5.304799 -1.254845 -2.276971
  C 6.726765 -1.164849 -2.099613
  C 7.620532 -1.615929 -2.982720
  C 9.098082 -1.531739 -2.812961
  H 1.237599 0.567785 1.305840
  H 0.781885 -0.889927 0.409197
  H 0.772663 0.683990 -0.399157
  H 3.357559 0.285381 0.730747
  H 2.201446 -1.100046 -1.991904
  H 4.006232 -0.251017 -0.303928
  H 4.966096 -1.729087 -3.207532
  H 7.063847 -0.697465 -1.182824
  H 7.279591 -2.083802 -3.901666
  H 9.355916 -1.052969 -1.872286
  H 9.542086 -0.962886 -3.629628
  H 9.539463 -2.527680 -2.832403
 20
 138.497106
  C 1.231486 0.053956 0.307079
  C 2.854570 -0.133991 -0.079973
  C 3.033301 -0.736837 -1.274657
  C 4.486188 -0.754608 -1.297488
  C 5.331021 -1.228357 -2.226910
  C 6.757685 -1.158316 -2.087816
  C 7.622291 -1.621393 -2.992893
  C 9.103855 -1.557441 -2.862777
  H 1.124547 0.548664 1.270905
  H 0.776179 -0.917808 0.342559
  H 0.767031 0.644289 -0.460644
  H 3.244046 0.337067 0.826470
  H 2.269012 -1.084112 -1.966642
  H 3.947064 -0.185118 -0.170820
  H 4.968432 -1.696158 -3.140782
  H 7.126551 -0.693935 -1.178068
  H 7.255588 -2.079420 -3.891568
  H 9.393061 -1.080383 -1.926612
  H 9.535155 -0.993268 -3.693522
  H 9.532306 -2.562226 -2.893053
 20
 150.348624
  C 1.183556 0.024105 0.253807
  C 2.848711 -0.097057 -0.012929
  C 3.109559 -0.694738 -1.200208
  C 4.556944 -0.705841 -1.199063
  C 5.361022 -1.194492 -2.160270
  C 6.793008 -1.149879 -2.070631
  C 7.616992 -1.628508 -3.004102
  C 9.104210 -1.587942 -2.922317
  H 0.982827 0.509588 1.202627
  H 0.774324 -0.972588 0.252621
  H 0.763668 0.599334 -0.554347
  H 3.089254 0.397553 0.932760
  H 2.373725 -1.053247 -1.926297
  H 3.900693 -0.096998 0.008980
  H 4.956147 -1.664057 -3.071494
  H 7.201265 -0.691851 -1.175868
  H 7.200507 -2.094971 -3.916007
  H 9.431052 -1.116647 -2.000953
  H 9.514975 -1.035330 -3.761707
  H 9.513148 -2.592223 -2.964489
 20
 159.024200
  C 1.140414 -0.007863 0.211543
  C 2.835918 -0.050685 0.047660
  C 3.169252 -0.658270 -1.133604
  C 4.605964 -0.673581 -1.135294
  C 5.381952 -1.169283 -2.125065
  C 6.813748 -1.153420 -2.064206
  C 7.610441 -1.640062 -3.023778
  C 9.100312 -1.618320 -2.977676
  H 0.855782 0.477813 1.141618
  H 0.784414 -1.036360 0.194919
  H 0.754285 0.545691 -0.641578
  H 2.940297 0.472256 1.022879
  H 2.454716 -1.031908 -1.878233
  H 3.856250 0.001703 0.174632
  H 4.948176 -1.627434 -3.038567
  H 7.249048 -0.709763 -1.172348
  H 7.174187 -2.089014 -3.914514
  H 9.456688 -1.152659 -2.055987
  H 9.499500 -1.060781 -3.832877
  H 9.497017 -2.637771 -3.035241
 20
 165.953174
  C 1.098967 -0.034329 0.144669
  C 2.819314 -0.030074 0.120120
  C 3.233862 -0.586472 -1.061020
  C 4.666588 -0.641753 -1.053069
  C 5.401235 -1.165032 -2.058661
  C 6.834920 -1.142197 -2.062483
  C 7.593710 -1.664571 -3.030520
  C 9.088157 -1.638579 -3.049340
  H 0.723903 0.401278 1.061634
  H 0.776483 -1.064522 0.047831
  H 0.788115 0.550786 -0.712505
  H 2.783944 0.461132 1.116042
  H 2.544052 -0.903575 -1.858307
  H 3.790818 0.031779 0.379106
  H 4.934094 -1.669991 -2.922813
  H 7.305541 -0.660642 -1.212991
  H 7.123100 -2.148801 -3.878955
  H 9.479286 -1.137248 -2.168377
  H 9.449252 -1.117910 -3.938689
  H 9.487668 -2.654245 -3.081308
 20
 170.679009
  C 1.070946 -0.059121 0.090509
  C 2.798079 -0.006046 0.185998
  C 3.291598 -0.530207 -0.996190
  C 4.711096 -0.629056 -0.997207
  C 5.415059 -1.168816 -2.017445
  C 6.845974 -1.139710 -2.068386
  C 7.576123 -1.689272 -3.042749
  C 9.062854 -1.653986 -3.110562
  H 0.611757 0.337296 0.988412
  H 0.781210 -1.088062 -0.078908
  H 0.830504 0.551066 -0.767654
  H 2.623620 0.452945 1.182259
  H 2.621729 -0.782042 -1.836899
  H 3.710600 0.059649 0.562219
  H 4.925194 -1.717692 -2.842858
  H 7.339883 -0.627602 -1.253429
  H 7.080957 -2.204863 -3.861322
  H 9.479979 -1.119695 -2.258634
  H 9.390296 -1.161026 -4.029180
  H 9.468380 -2.667839 -3.124598
