 18
 0.000000
  C 0.896409 0.047133 0.222148
  C 2.396282 0.056314 0.120126
  C 3.249340 -0.016860 1.370379
  C 2.531987 -0.083890 2.715996
  C 3.540325 -0.150912 3.858605
  C 2.992335 0.126046 -1.061772
  H 2.446055 0.176952 -1.988375
  H 4.066054 0.134937 -1.154056
  H 0.555625 -0.033348 1.248468
  H 0.484514 -0.795401 -0.331744
  H 0.474987 0.961889 -0.191067
  H 3.907450 0.857568 1.380585
  H 3.895521 -0.896229 1.286583
  H 1.894167 -0.969478 2.759396
  H 1.905051 0.800034 2.852649
  H 4.169637 -1.033446 3.763917
  H 3.027416 -0.198535 4.816855
  H 4.180796 0.728651 3.857489
 18
 5.292297
  C 0.894925 -0.016477 0.236236
  C 2.359848 0.048814 0.141346
  C 3.242728 -0.025869 1.372202
  C 2.533236 -0.075307 2.718874
  C 3.540333 -0.142671 3.859438
  C 2.957861 0.149110 -1.052386
  H 2.385394 0.192860 -1.976804
  H 4.040484 0.206053 -1.148200
  H 0.494348 -0.065766 1.243481
  H 0.459555 -0.804876 -0.377172
  H 0.733581 0.937836 -0.206084
  H 3.911613 0.836902 1.366019
  H 3.876104 -0.911113 1.283913
  H 1.887578 -0.954004 2.767413
  H 1.914529 0.815280 2.845557
  H 4.161626 -1.031695 3.768939
  H 3.029245 -0.177991 4.819159
  H 4.189933 0.730595 3.849036
 18
 17.640186
  C 0.885874 -0.069932 0.242780
  C 2.332388 0.042108 0.138252
  C 3.229664 -0.034754 1.366822
  C 2.528748 -0.065564 2.721564
  C 3.544291 -0.132364 3.858027
  C 2.938904 0.174986 -1.056802
  H 2.383029 0.207848 -1.967697
  H 4.009818 0.262952 -1.140907
  H 0.461857 -0.110963 1.239336
  H 0.434160 -0.801316 -0.412022
  H 0.936966 0.914432 -0.185398
  H 3.908181 0.812036 1.350037
  H 3.842849 -0.926884 1.278715
  H 1.872622 -0.942115 2.781766
  H 1.915968 0.836322 2.844505
  H 4.157669 -1.028961 3.770900
  H 3.039368 -0.154893 4.821642
  H 4.202617 0.735763 3.836027
 18
 31.457711
  C 0.875038 -0.111949 0.259689
  C 2.319954 0.039973 0.136090
  C 3.214852 -0.037094 1.356193
  C 2.519702 -0.053249 2.718188
  C 3.540038 -0.118056 3.845567
  C 2.936490 0.184420 -1.057830
  H 2.389861 0.206498 -1.977599
  H 3.999726 0.293255 -1.130782
  H 0.461529 -0.201799 1.242416
  H 0.394745 -0.748017 -0.465274
  H 1.098085 0.893835 -0.074104
  H 3.910142 0.806398 1.333271
  H 3.818934 -0.946589 1.266745
  H 1.864313 -0.918468 2.790172
  H 1.918880 0.845000 2.837702
  H 4.143925 -1.014644 3.760640
  H 3.043634 -0.130778 4.809132
  H 4.200406 0.741590 3.813411
 18
 43.011975
  C 0.865922 -0.146603 0.265651
  C 2.314189 0.032225 0.129048
  C 3.208174 -0.045482 1.351079
  C 2.515689 -0.045178 2.715542
  C 3.540479 -0.099450 3.843766
  C 2.934608 0.189275 -1.071595
  H 2.384949 0.204978 -1.996779
  H 4.000755 0.314165 -1.141821
  H 0.461468 -0.316953 1.237582
  H 0.349626 -0.653066 -0.536194
  H 1.232907 0.874938 0.052393
  H 3.912258 0.788368 1.321699
  H 3.798061 -0.957875 1.263220
  H 1.858793 -0.907519 2.800868
  H 1.916047 0.853571 2.826856
  H 4.144934 -1.001107 3.766692
  H 3.044244 -0.101109 4.811532
  H 4.204635 0.761582 3.801106
 18
 51.219292
  C 0.860983 -0.175837 0.268204
  C 2.313564 0.021046 0.122286
  C 3.206683 -0.061813 1.348245
  C 2.513714 -0.041796 2.711363
  C 3.539294 -0.077250 3.839743
  C 2.934597 0.193092 -1.085583
  H 2.380634 0.203888 -2.011299
  H 3.998250 0.343783 -1.153923
  H 0.461953 -0.436893 1.225966
  H 0.311623 -0.530885 -0.586904
  H 1.349215 0.849771 0.176451
  H 3.922245 0.764004 1.313374
  H 3.784512 -0.981407 1.266007
  H 1.856761 -0.906501 2.811504
  H 1.909633 0.861142 2.809554
  H 4.144791 -0.977539 3.775717
  H 3.044259 -0.065805 4.806102
  H 4.200960 0.783339 3.784440
 18
 58.115191
  C 0.866015 -0.198151 0.277701
  C 2.313513 0.022887 0.122880
  C 3.205728 -0.066666 1.343497
  C 2.512732 -0.037358 2.710054
  C 3.527236 -0.065001 3.819513
  C 2.934616 0.201707 -1.082161
  H 2.387676 0.217692 -2.001469
  H 3.994553 0.352145 -1.150081
  H 0.472217 -0.488631 1.226339
  H 0.300198 -0.479761 -0.585698
  H 1.437373 0.828011 0.232740
  H 3.927796 0.756833 1.304638
  H 3.782446 -1.000094 1.261300
  H 1.856822 -0.900546 2.819438
  H 1.908430 0.866055 2.805059
  H 4.135244 -0.971533 3.757009
  H 3.031002 -0.047549 4.791721
  H 4.192018 0.801852 3.754723
 18
 63.204511
  C 0.859403 -0.232016 0.265714
  C 2.308161 0.027280 0.121069
  C 3.207946 -0.077413 1.344029
  C 2.516752 -0.033493 2.707281
  C 3.541417 -0.051311 3.833642
  C 2.936743 0.210543 -1.094468
  H 2.383343 0.226030 -2.016314
  H 3.995065 0.374190 -1.154692
  H 0.455161 -0.549510 1.202082
  H 0.279363 -0.416734 -0.618786
  H 1.494251 0.816128 0.276155
  H 3.935849 0.730026 1.301848
  H 3.768485 -1.012799 1.264128
  H 1.857683 -0.896469 2.822924
  H 1.908832 0.876153 2.791581
  H 4.146902 -0.952978 3.782526
  H 3.045573 -0.024778 4.802625
  H 4.203509 0.809004 3.763933
 18
 67.822051
  C 0.858972 -0.269273 0.255412
  C 2.303720 0.034281 0.125181
  C 3.208905 -0.088147 1.345665
  C 2.520301 -0.027428 2.707704
  C 3.546965 -0.040380 3.835111
  C 2.939879 0.222454 -1.097565
  H 2.386914 0.241334 -2.017487
  H 3.996395 0.405320 -1.150820
  H 0.441075 -0.587944 1.186845
  H 0.270683 -0.387266 -0.633367
  H 1.536659 0.810421 0.298728
  H 3.954022 0.709067 1.298800
  H 3.749663 -1.033429 1.267046
  H 1.856576 -0.883490 2.831086
  H 1.918210 0.885667 2.783392
  H 4.148947 -0.947374 3.792192
  H 3.053345 -0.002912 4.800730
  H 4.214685 0.817914 3.757712
 18
 71.564919
  C 0.864409 -0.310871 0.247623
  C 2.300987 0.043625 0.129800
  C 3.210246 -0.096731 1.345210
  C 2.524180 -0.018536 2.706647
  C 3.551382 -0.032283 3.834668
  C 2.942950 0.238801 -1.098091
  H 2.390348 0.263003 -2.016001
  H 3.995877 0.432780 -1.145525
  H 0.435300 -0.612516 1.179493
  H 0.268146 -0.384056 -0.638956
  H 1.573875 0.819173 0.308893
  H 3.971176 0.688063 1.293407
  H 3.731748 -1.051855 1.267124
  H 1.852232 -0.865769 2.836774
  H 1.931697 0.899905 2.775121
  H 4.144310 -0.942231 3.797890
  H 3.057315 0.016998 4.803967
  H 4.225309 0.816488 3.750345
 18
 74.186250
  C 0.873995 -0.358532 0.239155
  C 2.297005 0.053929 0.135198
  C 3.209956 -0.103590 1.346115
  C 2.527515 -0.007138 2.707796
  C 3.556211 -0.025643 3.834599
  C 2.946416 0.256957 -1.099121
  H 2.394062 0.284876 -2.016116
  H 3.995891 0.462968 -1.140778
  H 0.431256 -0.627008 1.174701
  H 0.270262 -0.397668 -0.644571
  H 1.607186 0.843692 0.311476
  H 3.982720 0.666522 1.289285
  H 3.713540 -1.069643 1.268324
  H 1.843578 -0.846467 2.844955
  H 1.946887 0.917930 2.770002
  H 4.138538 -0.944230 3.803372
  H 3.064481 0.035598 4.802705
  H 4.240085 0.815451 3.744487
 18
 76.143454
  C 0.887210 -0.402623 0.227400
  C 2.291578 0.063032 0.138923
  C 3.206837 -0.106304 1.347213
  C 2.530483 0.007500 2.708596
  C 3.562805 -0.018789 3.833814
  C 2.946169 0.269868 -1.093583
  H 2.394323 0.312850 -2.008960
  H 3.991584 0.485006 -1.129114
  H 0.430594 -0.638435 1.166180
  H 0.280698 -0.418769 -0.653749
  H 1.640172 0.869041 0.307529
  H 3.991082 0.652034 1.284543
  H 3.694048 -1.080587 1.271124
  H 1.835610 -0.822279 2.852587
  H 1.961898 0.940493 2.766354
  H 4.136778 -0.949957 3.805256
  H 3.075063 0.053824 4.802530
  H 4.253457 0.808367 3.738064
 18
 76.744806
  C 0.901373 -0.450729 0.221981
  C 2.283570 0.073420 0.145035
  C 3.204336 -0.112542 1.348539
  C 2.533177 0.019923 2.711805
  C 3.566620 -0.014820 3.834619
  C 2.948718 0.291352 -1.099377
  H 2.396512 0.329863 -2.014457
  H 3.991792 0.524484 -1.129025
  H 0.438006 -0.653554 1.165895
  H 0.289112 -0.447061 -0.657083
  H 1.678602 0.917327 0.304283
  H 4.001242 0.630652 1.279639
  H 3.671457 -1.095945 1.272389
  H 1.825230 -0.797236 2.862594
  H 1.979338 0.962122 2.763819
  H 4.122120 -0.948660 3.810898
  H 3.081551 0.071103 4.803978
  H 4.274102 0.805775 3.731767
 18
 76.784753
  C 0.918349 -0.498211 0.213284
  C 2.273617 0.086315 0.150363
  C 3.200341 -0.113493 1.350070
  C 2.536637 0.037093 2.715056
  C 3.573388 -0.008160 3.834779
  C 2.948659 0.311759 -1.099164
  H 2.400295 0.345665 -2.017312
  H 3.988367 0.563216 -1.121802
  H 0.441812 -0.669443 1.158435
  H 0.300042 -0.481652 -0.662751
  H 1.719566 0.968459 0.297243
  H 4.009776 0.615511 1.274760
  H 3.648308 -1.106008 1.274321
  H 1.815424 -0.766993 2.872820
  H 1.998430 0.988461 2.762923
  H 4.113611 -0.951006 3.814280
  H 3.092900 0.090591 4.805217
  H 4.293823 0.800574 3.725237
