 13
 0.000000
  H 3.588840 -0.601105 -0.989450
  C 4.662389 -0.607692 -1.003587
  C 5.374970 -1.118708 -2.007371
  C 6.817706 -1.129911 -2.030830
  C 7.533616 -1.640188 -3.033363
  C 9.023462 -1.661940 -3.074835
  H 5.164255 -0.172730 -0.152109
  H 4.869923 -1.553754 -2.860460
  H 7.324870 -0.695917 -1.178621
  H 7.033345 -2.075655 -3.888896
  H 9.457470 -1.209886 -2.185574
  H 9.383344 -1.117155 -3.948968
  H 9.381233 -2.689542 -3.148529
 13
 0.234020
  H 3.587666 -0.561290 -1.037459
  C 4.663944 -0.550466 -1.037035
  C 5.377578 -1.155464 -1.980575
  C 6.821598 -1.153541 -2.019855
  C 7.538446 -1.690181 -3.005557
  C 9.027017 -1.666136 -3.075302
  H 5.137431 -0.016343 -0.229253
  H 4.879513 -1.682139 -2.785053
  H 7.322843 -0.677160 -1.186354
  H 7.033463 -2.163974 -3.838246
  H 9.461554 -1.480215 -2.095577
  H 9.352465 -0.870867 -3.747975
  H 9.411511 -2.606806 -3.464867
 13
 1.681342
  H 3.624096 -0.340207 -1.167963
  C 4.693122 -0.455033 -1.128952
  C 5.366635 -1.269293 -1.931902
  C 6.811409 -1.326185 -1.942933
  C 7.532980 -1.766974 -2.970940
  C 9.014903 -1.617094 -3.066318
  H 5.207967 0.163876 -0.411403
  H 4.849925 -1.871113 -2.668096
  H 7.311757 -0.895855 -1.084072
  H 7.035266 -2.178753 -3.839467
  H 9.482996 -1.666132 -2.086217
  H 9.230414 -0.638553 -3.498343
  H 9.450630 -2.376652 -3.710553
 13
 4.803644
  H 3.716253 -0.140018 -1.309044
  C 4.763498 -0.374065 -1.233559
  C 5.351105 -1.357841 -1.901517
  C 6.793438 -1.498989 -1.884551
  C 7.522358 -1.846420 -2.942285
  C 8.982438 -1.551441 -3.042295
  H 5.338570 0.251032 -0.568269
  H 4.793114 -1.984021 -2.585313
  H 7.294194 -1.120288 -1.001445
  H 7.035295 -2.202688 -3.840213
  H 9.491682 -1.717585 -2.096149
  H 9.057608 -0.490725 -3.289566
  H 9.466169 -2.129715 -3.825299
 13
 10.022825
  H 3.865835 0.038213 -1.428039
  C 4.874101 -0.318252 -1.316160
  C 5.340534 -1.421500 -1.889536
  C 6.768732 -1.666484 -1.844187
  C 7.515175 -1.963057 -2.911635
  C 8.924893 -1.469924 -3.015699
  H 5.506094 0.255397 -0.657565
  H 4.740252 -1.997916 -2.579406
  H 7.272259 -1.295553 -0.958069
  H 7.044490 -2.301983 -3.824694
  H 9.471820 -1.596572 -2.084996
  H 8.797715 -0.401535 -3.201748
  H 9.475545 -1.919783 -3.835871
 13
 16.977458
  H 4.040075 0.182535 -1.572280
  C 4.999309 -0.274876 -1.401444
  C 5.351386 -1.457920 -1.889897
  C 6.755209 -1.808096 -1.806086
  C 7.512053 -2.037442 -2.881306
  C 8.853875 -1.392426 -2.997185
  H 5.645926 0.237832 -0.707772
  H 4.696822 -2.033917 -2.528314
  H 7.260142 -1.447205 -0.914108
  H 7.038670 -2.331996 -3.811002
  H 9.422330 -1.449774 -2.073171
  H 8.563312 -0.353236 -3.174201
  H 9.446635 -1.757467 -3.830028
 13
 26.236911
  H 4.232310 0.297993 -1.656163
  C 5.141811 -0.240234 -1.450394
  C 5.368661 -1.475956 -1.882134
  C 6.741639 -1.926287 -1.761327
  C 7.510117 -2.125502 -2.842170
  C 8.750831 -1.304111 -2.994802
  H 5.802267 0.218988 -0.732309
  H 4.716588 -1.955102 -2.599502
  H 7.251525 -1.577186 -0.866388
  H 7.064320 -2.512347 -3.751010
  H 9.359869 -1.287829 -2.095511
  H 8.280691 -0.322059 -3.127700
  H 9.352029 -1.554509 -3.862079
 13
 36.444635
  H 4.436566 0.382902 -1.783861
  C 5.289623 -0.215917 -1.517331
  C 5.393776 -1.491357 -1.846565
  C 6.746637 -2.026905 -1.709010
  C 7.498002 -2.178360 -2.828311
  C 8.645399 -1.239726 -2.995760
  H 5.929031 0.206762 -0.764679
  H 4.739959 -1.931416 -2.566229
  H 7.280537 -1.666950 -0.850530
  H 7.019457 -2.526929 -3.735472
  H 9.304845 -1.208142 -2.114829
  H 8.051774 -0.316223 -3.034099
  H 9.218449 -1.363867 -3.906698
 13
 47.886012
  H 4.679179 0.456908 -1.901801
  C 5.467077 -0.186338 -1.573768
  C 5.435346 -1.478603 -1.834176
  C 6.732417 -2.098944 -1.677587
  C 7.469229 -2.215245 -2.826190
  C 8.532645 -1.185452 -2.996307
  H 6.072098 0.191071 -0.784969
  H 4.750053 -1.893376 -2.531981
  H 7.279536 -1.761932 -0.821962
  H 6.979729 -2.572099 -3.702254
  H 9.236532 -1.115056 -2.159107
  H 7.854212 -0.317256 -2.937689
  H 9.037807 -1.182176 -3.926339
 13
 59.800286
  H 4.919875 0.543020 -1.981881
  C 5.670048 -0.148274 -1.626963
  C 5.499783 -1.470474 -1.836062
  C 6.741932 -2.184293 -1.635699
  C 7.444149 -2.277466 -2.813441
  C 8.375426 -1.133827 -2.979477
  H 6.239691 0.213850 -0.783853
  H 4.819615 -1.803814 -2.599462
  H 7.315822 -1.872046 -0.770774
  H 6.949498 -2.651723 -3.695671
  H 9.082975 -0.980788 -2.174250
  H 7.588892 -0.301830 -2.823989
  H 8.832471 -1.036270 -3.953801
 13
 70.938624
  H 5.097100 0.598775 -2.032476
  C 5.805553 -0.129328 -1.660181
  C 5.537033 -1.455478 -1.845674
  C 6.737811 -2.214824 -1.610934
  C 7.414406 -2.294108 -2.813912
  C 8.272084 -1.110197 -2.962868
  H 6.359559 0.201443 -0.792263
  H 4.883558 -1.750458 -2.645793
  H 7.335496 -1.873078 -0.771817
  H 6.918159 -2.673342 -3.689921
  H 8.956526 -0.895154 -2.158734
  H 7.388855 -0.285850 -2.739683
  H 8.697488 -0.929197 -3.939880
 13
 79.071601
  H 5.177407 0.630796 -2.079757
  C 5.884398 -0.089696 -1.696336
  C 5.576123 -1.453988 -1.854235
  C 6.742020 -2.199932 -1.619317
  C 7.425455 -2.269227 -2.844055
  C 8.243787 -1.131132 -2.958408
  H 6.383451 0.233372 -0.792811
  H 4.908004 -1.749576 -2.652152
  H 7.337540 -1.886444 -0.764653
  H 6.906455 -2.629001 -3.722421
  H 8.914558 -0.884807 -2.146706
  H 7.128588 -0.143940 -2.584964
  H 8.644090 -0.899024 -3.933973
 13
 66.324886
  H 5.062652 0.671974 -1.984826
  C 5.831327 0.001177 -1.666132
  C 5.620339 -1.405149 -1.881053
  C 6.737398 -2.140148 -1.674440
  C 7.463263 -2.264431 -2.888576
  C 8.327216 -1.225135 -2.996484
  H 6.273134 0.295077 -0.714995
  H 4.927528 -1.707972 -2.679014
  H 7.345600 -1.826209 -0.835664
  H 6.973775 -2.650776 -3.797532
  H 8.930257 -0.956568 -2.145459
  H 6.783381 0.128529 -2.420433
  H 8.797677 -1.003865 -3.944726
 13
 50.367938
  H 4.874323 0.725221 -1.868597
  C 5.723778 0.109527 -1.599924
  C 5.607838 -1.333841 -1.937099
  C 6.735201 -2.067241 -1.717921
  C 7.513846 -2.249944 -2.927294
  C 8.465005 -1.313213 -3.061401
  H 6.057622 0.317706 -0.583951
  H 4.968033 -1.595531 -2.777214
  H 7.306796 -1.812864 -0.827108
  H 7.028208 -2.670082 -3.799749
  H 9.029993 -0.966220 -2.209085
  H 6.573131 0.333323 -2.291794
  H 8.950926 -1.151236 -4.007926
 13
 1.495690
  H 4.121158 -0.023134 -1.114577
  C 5.183751 0.164278 -1.243450
  C 5.791166 -0.809403 -2.195230
  C 7.038861 -1.259304 -2.093559
  C 7.689792 -2.062116 -3.103386
  C 9.008201 -2.115939 -3.243220
  H 5.673810 0.130171 -0.272847
  H 5.179130 -1.099928 -3.037704
  H 7.655563 -0.943896 -1.259155
  H 7.044461 -2.562641 -3.814624
  H 9.661723 -1.590759 -2.565319
  H 5.301707 1.178489 -1.640004
  H 9.485378 -2.680213 -4.025987
