 29
 0.000000
  C 0.967593 0.141122 0.403946
  C 2.443564 0.138513 0.396474
  C 3.233327 0.606786 1.560713
  C 2.460417 1.097043 2.780750
  H 3.137835 1.410821 3.560893
  C 3.056463 -0.326745 -0.761461
  C 4.433600 -0.411558 -0.973361
  C 5.114427 -0.862179 -2.097057
  C 4.622836 -1.385047 -3.401228
  C 3.133077 -1.504153 -3.699385
  C 2.914999 -2.066266 -5.101467
  O 6.436708 -0.856218 -2.082248
  H 0.536951 0.512032 1.326751
  H 0.594790 -0.870416 0.238154
  H 0.594250 0.756172 -0.415819
  H 3.889334 1.417453 1.224517
  H 3.889803 -0.210673 1.879064
  H 1.824786 0.303393 3.172030
  H 1.824384 1.940434 2.513970
  H 2.396478 -0.643722 -1.550036
  H 5.052421 -0.080228 -0.148276
  H 5.080513 -2.373029 -3.525942
  H 5.081036 -0.757246 -4.173950
  H 2.656761 -0.524326 -3.647402
  H 2.656252 -2.176401 -2.984985
  H 3.355542 -1.418352 -5.855748
  H 1.851011 -2.149056 -5.308779
  H 3.355067 -3.056031 -5.199109
  H 6.809606 -0.521267 -1.245327
 29
 0.235112
  C 0.984047 0.538615 0.258724
  C 2.443375 0.329145 0.293021
  C 3.213421 0.396229 1.559127
  C 2.426167 0.648399 2.837944
  H 3.109922 0.667581 3.682510
  C 3.067834 0.035986 -0.914290
  C 4.444711 -0.117401 -1.088645
  C 5.127489 -0.645125 -2.177868
  C 4.614715 -1.316898 -3.403813
  C 3.126384 -1.578527 -3.596803
  C 2.906438 -2.416044 -4.854121
  O 6.446373 -0.635401 -2.174242
  H 0.552178 0.706914 1.237382
  H 0.494123 -0.318732 -0.203752
  H 0.751562 1.390220 -0.382693
  H 3.964591 1.187777 1.454676
  H 3.776332 -0.535779 1.672558
  H 1.699689 -0.139894 3.019120
  H 1.910985 1.605065 2.807633
  H 2.427954 -0.042260 -1.776434
  H 5.072870 0.216605 -0.271421
  H 5.151115 -2.271488 -3.460771
  H 4.989971 -0.738828 -4.256082
  H 2.586024 -0.640039 -3.717548
  H 2.725546 -2.119979 -2.739591
  H 3.278566 -1.899084 -5.735381
  H 1.846997 -2.609766 -4.999248
  H 3.416917 -3.373371 -4.779598
  H 6.850595 -0.192982 -1.404574
 29
 2.711603
  C 1.012766 0.750433 0.150646
  C 2.458670 0.455197 0.174174
  C 3.199895 0.268810 1.446380
  C 2.392190 0.326133 2.735376
  H 3.055715 0.170013 3.582757
  C 3.108517 0.329312 -1.042320
  C 4.491975 0.142156 -1.195683
  C 5.167363 -0.547004 -2.190444
  C 4.623335 -1.365622 -3.307769
  C 3.125089 -1.618285 -3.422232
  C 2.841307 -2.537444 -4.607240
  O 6.485935 -0.594269 -2.172698
  H 0.549214 0.681823 1.124926
  H 0.499906 0.081183 -0.538466
  H 0.856027 1.756368 -0.242608
  H 3.978377 1.041017 1.488861
  H 3.734930 -0.684711 1.406831
  H 1.633970 -0.452510 2.763263
  H 1.912005 1.293061 2.863013
  H 2.505599 0.437972 -1.929267
  H 5.117207 0.566133 -0.417266
  H 5.147153 -2.327134 -3.253232
  H 4.978837 -0.905492 -4.237565
  H 2.588237 -0.684895 -3.581460
  H 2.755091 -2.089285 -2.510758
  H 3.176614 -2.085000 -5.538010
  H 1.774977 -2.730030 -4.690425
  H 3.348476 -3.492705 -4.490801
  H 6.905975 -0.053197 -1.479317
 29
 7.039289
  C 1.078540 0.967346 0.013794
  C 2.504186 0.578168 0.025312
  C 3.187166 0.132338 1.265622
  C 2.331238 -0.008638 2.517400
  H 2.952871 -0.347210 3.343098
  C 3.200360 0.616575 -1.162442
  C 4.587384 0.360143 -1.294406
  C 5.226575 -0.482169 -2.177847
  C 4.616558 -1.412423 -3.168144
  C 3.109373 -1.636433 -3.159467
  C 2.716550 -2.608194 -4.269166
  O 6.543207 -0.588239 -2.166511
  H 0.569266 0.738242 0.943186
  H 0.555106 0.480214 -0.810219
  H 0.998633 2.038360 -0.173542
  H 3.989141 0.851346 1.466073
  H 3.693341 -0.819130 1.072663
  H 1.543202 -0.741694 2.376995
  H 1.884551 0.938939 2.804932
  H 2.660730 0.918912 -2.046632
  H 5.218714 0.865584 -0.572488
  H 5.129738 -2.373255 -3.041348
  H 4.918171 -1.056963 -4.160216
  H 2.580335 -0.701189 -3.321227
  H 2.801996 -2.050981 -2.199721
  H 2.985803 -2.211251 -5.244930
  H 1.644056 -2.781726 -4.259092
  H 3.214833 -3.567429 -4.142261
  H 6.997898 0.031386 -1.567665
 29
 12.159908
  C 1.136256 1.088873 -0.104344
  C 2.547390 0.649918 -0.108721
  C 3.184929 0.031895 1.083257
  C 2.285660 -0.275540 2.270224
  H 2.874886 -0.736418 3.060257
  C 3.285758 0.817751 -1.253565
  C 4.676839 0.507924 -1.372621
  C 5.272327 -0.450066 -2.149718
  C 4.595730 -1.451057 -3.023787
  C 3.087497 -1.630921 -2.893965
  C 2.575316 -2.616289 -3.939958
  O 6.588541 -0.597918 -2.163575
  H 0.590364 0.743404 0.766102
  H 0.625113 0.750232 -1.004036
  H 1.097421 2.179168 -0.128159
  H 3.982251 0.712181 1.407756
  H 3.696261 -0.884167 0.778345
  H 1.495746 -0.971306 1.997862
  H 1.835501 0.627697 2.675417
  H 2.814543 1.295708 -2.099351
  H 5.324444 1.104501 -0.742406
  H 5.097850 -2.409149 -2.854657
  H 4.836410 -1.174689 -4.056457
  H 2.579415 -0.680826 -3.037824
  H 2.842339 -2.009580 -1.900161
  H 2.779179 -2.255986 -4.944466
  H 1.502192 -2.752945 -3.840007
  H 3.051460 -3.587762 -3.823648
  H 7.076403 0.063746 -1.641556
 29
 16.249778
  C 1.206982 1.200361 -0.226809
  C 2.595613 0.692821 -0.243121
  C 3.174807 -0.058773 0.904078
  C 2.216545 -0.496971 1.998739
  H 2.761082 -1.062859 2.750773
  C 3.384080 0.935685 -1.334729
  C 4.785438 0.569490 -1.444788
  C 5.331622 -0.465512 -2.130325
  C 4.573136 -1.490732 -2.911701
  C 3.098294 -1.644498 -2.579478
  C 2.389966 -2.553158 -3.574313
  O 6.649366 -0.657326 -2.197282
  H 0.608683 0.752330 0.558733
  H 0.721953 1.041345 -1.188494
  H 1.220108 2.279995 -0.065718
  H 3.954923 0.570127 1.353804
  H 3.708198 -0.929325 0.507469
  H 1.432600 -1.135651 1.602590
  H 1.758067 0.355451 2.495064
  H 2.993714 1.563692 -2.129818
  H 5.458374 1.261987 -0.946922
  H 5.087763 -2.445543 -2.776987
  H 4.688927 -1.235764 -3.971941
  H 2.620572 -0.657387 -2.602130
  H 2.981056 -2.046947 -1.572389
  H 2.462893 -2.159881 -4.583965
  H 1.337725 -2.651690 -3.320557
  H 2.834154 -3.545569 -3.564676
  H 7.172059 0.023287 -1.741270
 29
 14.855881
  C 1.231076 1.221253 -0.226486
  C 2.619034 0.710197 -0.262359
  C 3.194484 -0.100166 0.846277
  C 2.232685 -0.594912 1.913218
  H 2.775870 -1.200298 2.635080
  C 3.421241 1.010696 -1.324236
  C 4.805860 0.617184 -1.462257
  C 5.315809 -0.477927 -2.089377
  C 4.527658 -1.514838 -2.819931
  C 3.035894 -1.582818 -2.543392
  C 2.340361 -2.555301 -3.491988
  O 6.626207 -0.693150 -2.174388
  H 0.636353 0.755958 0.549114
  H 0.743905 1.078866 -1.189347
  H 1.242755 2.296031 -0.043304
  H 3.977925 0.490276 1.333133
  H 3.724219 -0.947457 0.392159
  H 1.446498 -1.209723 1.482865
  H 1.777011 0.230605 2.454789
  H 3.049621 1.719069 -2.066086
  H 5.513696 1.346948 -1.065913
  H 4.990910 -2.482915 -2.605449
  H 4.696168 -1.345058 -3.888971
  H 2.596028 -0.588728 -2.675338
  H 2.856462 -1.894460 -1.517138
  H 2.472447 -2.254117 -4.528403
  H 1.274093 -2.595378 -3.282857
  H 2.744725 -3.556932 -3.375877
  H 7.170442 -0.007183 -1.749729
 29
 12.727978
  C 1.251839 1.231368 -0.190558
  C 2.638162 0.721458 -0.254263
  C 3.216435 -0.136649 0.818408
  C 2.255485 -0.676870 1.865153
  H 2.801146 -1.306706 2.564243
  C 3.439081 1.076143 -1.301950
  C 4.806919 0.668499 -1.503746
  C 5.287481 -0.465586 -2.089901
  C 4.481596 -1.523626 -2.768713
  C 2.984638 -1.559377 -2.518151
  C 2.304022 -2.581949 -3.423237
  O 6.591418 -0.692402 -2.202329
  H 0.661011 0.736059 0.570344
  H 0.760178 1.128002 -1.155831
  H 1.265212 2.299353 0.036430
  H 4.001668 0.431717 1.329666
  H 3.744586 -0.963490 0.327014
  H 1.472365 -1.278162 1.410564
  H 1.795828 0.124394 2.436871
  H 3.077364 1.838558 -1.987904
  H 5.535071 1.424785 -1.217984
  H 4.928331 -2.486985 -2.505098
  H 4.664382 -1.409209 -3.844228
  H 2.555897 -0.569971 -2.719205
  H 2.776898 -1.811446 -1.480192
  H 2.463078 -2.344146 -4.472415
  H 1.235132 -2.599838 -3.238607
  H 2.694801 -3.578687 -3.238326
  H 7.153097 -0.001786 -1.810022
 29
 10.959997
  C 1.483036 1.178832 0.239449
  C 2.828980 0.684448 -0.124481
  C 3.602489 -0.228708 0.760997
  C 2.863776 -0.840114 1.940371
  H 3.538712 -1.492935 2.488293
  C 3.414520 1.129379 -1.277403
  C 4.694194 0.732318 -1.788648
  C 5.039199 -0.420588 -2.438809
  C 4.115026 -1.480951 -2.938519
  C 2.666889 -1.475666 -2.474390
  C 1.857356 -2.520553 -3.237179
  O 6.288049 -0.645983 -2.824572
  H 1.057699 0.648216 1.082377
  H 0.807335 1.107202 -0.611455
  H 1.537420 2.238111 0.497165
  H 4.470643 0.321026 1.142669
  H 4.028364 -1.020907 0.134812
  H 2.014626 -1.434831 1.610038
  H 2.512457 -0.078480 2.631546
  H 2.942941 1.958335 -1.797910
  H 5.459269 1.503707 -1.725481
  H 4.577053 -2.447270 -2.713626
  H 4.137466 -1.403997 -4.031970
  H 2.227574 -0.490349 -2.651793
  H 2.600790 -1.691139 -1.410099
  H 1.869691 -2.322577 -4.306161
  H 0.823039 -2.515371 -2.905086
  H 2.261408 -3.517275 -3.071479
  H 6.924350 0.033133 -2.538776
 29
 9.262207
  C 1.491491 1.207992 0.247079
  C 2.822159 0.686562 -0.125375
  C 3.561968 -0.277600 0.735288
  C 2.790038 -0.923216 1.876344
  H 3.442533 -1.606680 2.411703
  C 3.434876 1.175243 -1.251102
  C 4.696898 0.772728 -1.782026
  C 5.055095 -0.418319 -2.359866
  C 4.149237 -1.515069 -2.815619
  C 2.670537 -1.462202 -2.460909
  C 1.915708 -2.574781 -3.181360
  O 6.308772 -0.650952 -2.724996
  H 1.051230 0.672466 1.079546
  H 0.817019 1.169396 -0.606478
  H 1.570814 2.260373 0.522871
  H 4.429750 0.242575 1.154686
  H 3.986925 -1.051907 0.088586
  H 1.939417 -1.491196 1.506680
  H 2.436211 -0.183372 2.591072
  H 2.994568 2.055083 -1.713383
  H 5.444439 1.561927 -1.799045
  H 4.584159 -2.460369 -2.478339
  H 4.245837 -1.535415 -3.907330
  H 2.255295 -0.499350 -2.761527
  H 2.518299 -1.580565 -1.390407
  H 2.007885 -2.476081 -4.261313
  H 0.858932 -2.540808 -2.928489
  H 2.301239 -3.551034 -2.894944
  H 6.937598 0.045067 -2.470126
 29
 7.517657
  C 1.484294 1.177354 0.224326
  C 2.829717 0.673953 -0.119556
  C 3.545348 -0.306375 0.743686
  C 2.721660 -1.034071 1.797142
  H 3.363410 -1.726478 2.338502
  C 3.478091 1.209720 -1.206800
  C 4.722324 0.789734 -1.748356
  C 5.085918 -0.442512 -2.240426
  C 4.177101 -1.547713 -2.671981
  C 2.673518 -1.420888 -2.456169
  C 1.942968 -2.554036 -3.171304
  O 6.341685 -0.706486 -2.558865
  H 1.008164 0.601091 1.006469
  H 0.846259 1.185329 -0.659437
  H 1.553741 2.215230 0.558265
  H 4.358139 0.229474 1.248283
  H 4.048480 -1.031864 0.099867
  H 1.916891 -1.605432 1.344542
  H 2.297613 -0.345599 2.524938
  H 3.072030 2.122178 -1.629243
  H 5.460801 1.579605 -1.843159
  H 4.548057 -2.477977 -2.229530
  H 4.360012 -1.657915 -3.746595
  H 2.324212 -0.465422 -2.855240
  H 2.418547 -1.465374 -1.398668
  H 2.138230 -2.531666 -4.239677
  H 0.871086 -2.467025 -3.023682
  H 2.259211 -3.520741 -2.786883
  H 6.979416 -0.013133 -2.308550
 29
 6.633666
  C 1.532480 1.192058 0.338367
  C 2.851952 0.666503 -0.051274
  C 3.569955 -0.335925 0.776314
  C 2.769951 -1.044893 1.842103
  H 3.411463 -1.755180 2.355050
  C 3.469477 1.222811 -1.143375
  C 4.676963 0.808010 -1.744292
  C 5.054026 -0.443191 -2.192299
  C 4.171077 -1.563723 -2.592212
  C 2.656281 -1.392753 -2.536984
  C 1.969859 -2.582335 -3.224885
  O 6.317328 -0.707103 -2.481846
  H 1.084216 0.648273 1.165564
  H 0.856045 1.172538 -0.511192
  H 1.625069 2.234179 0.624655
  H 4.410598 0.176714 1.253436
  H 4.034881 -1.074791 0.115720
  H 1.925049 -1.604135 1.402285
  H 2.389092 -0.358463 2.580286
  H 3.076464 2.167931 -1.518307
  H 5.383797 1.614998 -1.933416
  H 4.476832 -2.453312 -2.036792
  H 4.450153 -1.776569 -3.641954
  H 2.375936 -0.473336 -3.048290
  H 2.295888 -1.338538 -1.505395
  H 2.268098 -2.658348 -4.273450
  H 0.879980 -2.467221 -3.192365
  H 2.227660 -3.515287 -2.728939
  H 6.945024 -0.008251 -2.231055
 29
 6.081642
  C 1.531625 1.163889 0.309261
  C 2.869160 0.657075 -0.064765
  C 3.556330 -0.401335 0.725096
  C 2.727065 -1.141244 1.765264
  H 3.353149 -1.875269 2.265784
  C 3.531076 1.271200 -1.110455
  C 4.709487 0.854859 -1.756636
  C 5.075047 -0.401971 -2.209012
  C 4.169338 -1.543754 -2.538175
  C 2.661465 -1.322803 -2.524113
  C 1.949036 -2.555241 -3.074731
  O 6.316361 -0.654008 -2.577315
  H 1.085154 0.613486 1.128735
  H 0.864904 1.124156 -0.554141
  H 1.594811 2.217039 0.588245
  H 4.408940 0.070510 1.229157
  H 4.003939 -1.122469 0.037664
  H 1.894628 -1.667872 1.306023
  H 2.341984 -0.468671 2.527488
  H 3.182318 2.257019 -1.394206
  H 5.389753 1.661192 -2.012002
  H 4.439608 -2.397787 -1.906688
  H 4.457872 -1.844503 -3.551645
  H 2.414751 -0.459984 -3.146186
  H 2.291734 -1.135654 -1.520184
  H 2.254134 -2.759392 -4.098216
  H 0.872864 -2.404667 -3.068315
  H 2.171600 -3.432226 -2.472548
  H 6.954470 0.053802 -2.374447
 29
 6.725212
  C 1.530518 1.197779 0.315468
  C 2.854864 0.663684 -0.068693
  C 3.517820 -0.423249 0.700944
  C 2.686734 -1.129751 1.761440
  H 3.293476 -1.892678 2.241264
  C 3.510463 1.246921 -1.136088
  C 4.711805 0.844038 -1.754859
  C 5.073651 -0.386827 -2.275099
  C 4.177367 -1.531492 -2.621014
  C 2.663930 -1.325546 -2.601235
  C 1.960514 -2.581069 -3.107959
  O 6.313209 -0.613102 -2.673684
  H 1.100774 0.688139 1.168910
  H 0.842744 1.124869 -0.526931
  H 1.606778 2.262092 0.544378
  H 4.400304 0.014116 1.184747
  H 3.917713 -1.157816 0.000670
  H 1.818823 -1.616740 1.323028
  H 2.352960 -0.445882 2.536172
  H 3.194832 2.248513 -1.406458
  H 5.387551 1.667918 -1.961440
  H 4.453047 -2.385598 -1.994355
  H 4.469151 -1.823790 -3.635316
  H 2.405669 -0.484545 -3.246907
  H 2.297958 -1.106169 -1.601689
  H 2.264457 -2.815588 -4.124888
  H 0.882722 -2.440798 -3.103219
  H 2.193065 -3.435905 -2.477000
  H 6.944025 0.101435 -2.468292
