 20
 0.000000
  C 0.972048 0.137553 0.391994
  C 2.443661 0.145177 0.412385
  C 3.209513 0.616971 1.587061
  C 2.409705 1.100128 2.789317
  H 3.089897 1.415766 3.576125
  C 3.093021 -0.314473 -0.731199
  C 4.473365 -0.388195 -0.916767
  C 5.094422 -0.845583 -2.056472
  H 4.571756 -1.199951 -2.937451
  O 6.388370 -0.897258 -2.187585
  H 0.527875 0.505973 1.308073
  H 0.609856 -0.874667 0.203667
  H 0.610481 0.738144 -0.444542
  H 3.870040 1.428208 1.261086
  H 3.869408 -0.194701 1.913111
  H 1.777373 0.309755 3.186438
  H 1.778161 1.946149 2.529359
  H 2.465885 -0.643598 -1.549706
  H 5.129038 -0.066394 -0.117008
  H 6.877091 -0.580538 -1.400080
 20
 16.652212
  C 0.949029 0.139893 0.399358
  C 2.434391 0.138622 0.396346
  C 3.225740 0.611095 1.571394
  C 2.448863 1.099582 2.786949
  H 3.146363 1.410384 3.560350
  C 3.081140 -0.330143 -0.770660
  C 4.537618 -0.420293 -0.995758
  C 5.057103 -0.873974 -2.129504
  H 4.629751 -1.240622 -3.046219
  O 6.342302 -0.818090 -1.989690
  H 0.520202 0.511173 1.322632
  H 0.577663 -0.870004 0.214121
  H 0.577697 0.740500 -0.433399
  H 3.887492 1.416409 1.234556
  H 3.887906 -0.202961 1.885583
  H 1.822486 0.313299 3.201822
  H 1.822548 1.954307 2.542414
  H 2.460547 -0.659006 -1.590515
  H 5.167200 -0.097114 -0.187179
  H 6.681047 -0.483278 -1.151649
 20
 56.709986
  C 0.971247 0.140290 0.402723
  C 2.444765 0.129697 0.373937
  C 3.247568 0.594546 1.528135
  C 2.484930 1.086885 2.753777
  H 3.194591 1.395313 3.520144
  C 3.049745 -0.331799 -0.775761
  C 4.569815 -0.434326 -1.029567
  C 5.012159 -0.879931 -2.148233
  H 4.687136 -1.260017 -3.105618
  O 6.253408 -0.751703 -1.823128
  H 0.563872 0.513203 1.330394
  H 0.591331 -0.868285 0.223460
  H 0.590152 0.743252 -0.424830
  H 3.909108 1.401223 1.182398
  H 3.910401 -0.225709 1.836735
  H 1.861021 0.303164 3.177265
  H 1.860150 1.945294 2.517136
  H 2.431015 -0.655420 -1.584193
  H 5.109627 -0.097431 -0.180112
  H 6.514669 -0.410120 -0.957818
 20
 108.642627
  C 0.946023 0.140841 0.425775
  C 2.422372 0.137120 0.367946
  C 3.239607 0.602894 1.511848
  C 2.493307 1.086445 2.750805
  H 3.212173 1.395448 3.508708
  C 3.011069 -0.319461 -0.784012
  C 4.674917 -0.452846 -1.069533
  C 5.010522 -0.904616 -2.206903
  H 4.753583 -1.273749 -3.165260
  O 6.254011 -0.737966 -1.764185
  H 0.553931 0.510447 1.363732
  H 0.565191 -0.871511 0.251178
  H 0.547875 0.746244 -0.395740
  H 3.893421 1.416297 1.157537
  H 3.910606 -0.219397 1.807464
  H 1.878845 0.299204 3.179231
  H 1.860899 1.941743 2.526979
  H 2.401927 -0.631974 -1.602191
  H 5.114678 -0.112535 -0.168503
  H 6.522635 -0.420944 -0.893541
 20
 140.890354
  C 0.875520 0.155093 0.448736
  C 2.397647 0.122803 0.339797
  C 3.251680 0.586306 1.489105
  C 2.525271 1.072190 2.723041
  H 3.255503 1.374816 3.475022
  C 2.864740 -0.327313 -0.792921
  C 4.785416 -0.454153 -1.092833
  C 5.035919 -0.920944 -2.236954
  H 4.827221 -1.308174 -3.208551
  O 6.331635 -0.694262 -1.699699
  H 0.575140 0.538253 1.412358
  H 0.465782 -0.847029 0.323300
  H 0.456870 0.792155 -0.331292
  H 3.874756 1.413511 1.123909
  H 3.882005 -0.259656 1.789256
  H 1.909866 0.290495 3.155575
  H 1.900703 1.932187 2.503443
  H 2.362989 -0.677690 -1.672903
  H 5.034005 -0.069921 -0.122413
  H 6.663538 -0.394479 -0.836503
 20
 159.587896
  C 0.798880 0.169944 0.486745
  C 2.312736 0.125138 0.335049
  C 3.199380 0.577939 1.477068
  C 2.504486 1.080624 2.748847
  H 3.256337 1.376228 3.469021
  C 2.768371 -0.319087 -0.796942
  C 4.972997 -0.466530 -1.127808
  C 5.106441 -0.945381 -2.285937
  H 4.897233 -1.334497 -3.250488
  O 6.459648 -0.710215 -1.736197
  H 0.526444 0.549160 1.464646
  H 0.383011 -0.826014 0.375287
  H 0.365327 0.818366 -0.271008
  H 3.822882 1.388238 1.106093
  H 3.847451 -0.249688 1.754882
  H 1.898693 0.305783 3.210470
  H 1.882742 1.950716 2.550997
  H 2.307168 -0.672413 -1.686101
  H 5.102496 -0.071487 -0.151329
  H 6.864870 -0.431252 -0.891207
 20
 168.565325
  C 0.704201 0.214078 0.544246
  C 2.217106 0.138951 0.351886
  C 3.144073 0.563917 1.478826
  C 2.485482 1.093783 2.751660
  H 3.254598 1.385863 3.455543
  C 2.670347 -0.301488 -0.786264
  C 5.161351 -0.496250 -1.153420
  C 5.216561 -0.994119 -2.336283
  H 4.994019 -1.393792 -3.316900
  O 6.601959 -0.761395 -1.775233
  H 0.458339 0.585987 1.528069
  H 0.263960 -0.778583 0.428906
  H 0.263686 0.881326 -0.200152
  H 3.756797 1.373545 1.082564
  H 3.785518 -0.273584 1.739923
  H 1.874186 0.340678 3.230409
  H 1.877603 1.965348 2.550818
  H 2.200690 -0.644991 -1.686303
  H 5.252701 -0.101474 -0.132118
  H 7.076000 -0.485061 -0.964289
 20
 168.665116
  C 0.607348 0.236627 0.605704
  C 2.114562 0.148996 0.368227
  C 3.074607 0.572223 1.470057
  C 2.460754 1.093583 2.762216
  H 3.260207 1.371222 3.451179
  C 2.565679 -0.285997 -0.769455
  C 5.386921 -0.508472 -1.191776
  C 5.306365 -0.963833 -2.358573
  H 5.083115 -1.452181 -3.289027
  O 6.758421 -0.771193 -1.835888
  H 0.381855 0.610254 1.595432
  H 0.156989 -0.749868 0.495157
  H 0.155266 0.899410 -0.127965
  H 3.696513 1.370202 1.062583
  H 3.714115 -0.283058 1.715444
  H 1.850952 0.335829 3.253836
  H 1.853319 1.981070 2.586553
  H 2.116448 -0.621963 -1.674742
  H 5.289983 -0.110056 -0.206431
  H 7.377384 -0.547124 -1.101327
 20
 168.749521
  C 0.539525 0.248554 0.655037
  C 2.040534 0.155692 0.390070
  C 3.022485 0.579893 1.471741
  C 2.432972 1.100976 2.774997
  H 3.238495 1.371628 3.445870
  C 2.474826 -0.287495 -0.751750
  C 5.536626 -0.527624 -1.224608
  C 5.394040 -0.989069 -2.391417
  H 5.164736 -1.414485 -3.342334
  O 6.872391 -0.786987 -1.874480
  H 0.334024 0.630087 1.653484
  H 0.087053 -0.732101 0.558061
  H 0.074532 0.909227 -0.074586
  H 3.652498 1.373854 1.049220
  H 3.660087 -0.276104 1.703874
  H 1.829794 0.345770 3.272755
  H 1.827256 1.988693 2.613201
  H 2.021060 -0.632132 -1.653042
  H 5.376779 -0.118559 -0.254452
  H 7.545803 -0.614827 -1.177642
 20
 169.230306
  C 0.491859 0.260455 0.687251
  C 1.988068 0.164203 0.404233
  C 2.986394 0.582656 1.474124
  C 2.418102 1.102351 2.786227
  H 3.239102 1.368888 3.450574
  C 2.406826 -0.279985 -0.742813
  C 5.640012 -0.539502 -1.270257
  C 5.429632 -1.003796 -2.429678
  H 5.211207 -1.441590 -3.376448
  O 6.943870 -0.783590 -1.883131
  H 0.300188 0.639531 1.682896
  H 0.033726 -0.723150 0.593834
  H 0.020644 0.922586 -0.035371
  H 3.611185 1.370229 1.047088
  H 3.622744 -0.277616 1.695552
  H 1.817933 0.347515 3.289848
  H 1.813421 1.993951 2.635070
  H 1.944675 -0.624503 -1.638234
  H 5.467098 -0.131160 -0.298035
  H 7.621104 -0.613787 -1.187905
