 28
 0.000000
  C 0.956894 0.147122 0.410812
  C 2.431184 0.141012 0.396863
  C 3.222863 0.607537 1.556459
  C 2.460891 1.095390 2.785248
  C 3.428826 1.535528 3.879366
  C 3.040038 -0.325980 -0.763865
  C 4.423186 -0.411044 -0.976083
  C 5.095858 -0.858056 -2.088648
  C 4.630070 -1.379537 -3.385888
  C 3.148307 -1.508128 -3.705546
  H 3.020793 -1.909354 -4.703774
  H 6.176095 -0.843413 -2.052979
  H 0.535669 0.527326 1.334114
  H 0.569958 -0.861197 0.252892
  H 0.582071 0.756894 -0.412654
  H 3.878312 1.418385 1.218127
  H 3.884526 -0.208859 1.868163
  H 1.827575 0.298532 3.179472
  H 1.821832 1.940937 2.524166
  H 4.067416 0.711786 4.190604
  H 2.878940 1.881494 4.751118
  H 4.061606 2.351061 3.536260
  H 2.378122 -0.643261 -1.552132
  H 5.045125 -0.080039 -0.153558
  H 5.101082 -2.364210 -3.504889
  H 5.101043 -0.751187 -4.153349
  H 2.661052 -0.536126 -3.668705
  H 2.661174 -2.184321 -3.006249
 28
 4.217107
  C 0.935324 0.212945 0.387670
  C 2.381644 0.156138 0.393550
  C 3.203935 0.614856 1.560046
  C 2.459332 1.088809 2.809624
  C 3.449814 1.527884 3.887406
  C 3.010570 -0.326700 -0.772113
  C 4.412385 -0.418329 -0.969081
  C 5.074642 -0.868384 -2.075937
  C 4.624141 -1.384987 -3.374043
  C 3.145934 -1.506267 -3.704930
  H 3.041657 -1.906963 -4.709351
  H 6.155449 -0.847057 -1.999814
  H 0.470075 0.561922 1.289071
  H 0.821411 -0.856501 0.238497
  H 0.515360 0.712708 -0.469223
  H 3.845305 1.435621 1.211226
  H 3.893235 -0.187008 1.854095
  H 1.843784 0.281751 3.210274
  H 1.810770 1.932332 2.569557
  H 4.101871 0.706573 4.176042
  H 2.919986 1.862990 4.776052
  H 4.068688 2.350479 3.536302
  H 2.353229 -0.644337 -1.570212
  H 5.044109 -0.094111 -0.159631
  H 5.103615 -2.366722 -3.495152
  H 5.116060 -0.764881 -4.136813
  H 2.655402 -0.536915 -3.685164
  H 2.643426 -2.188865 -3.025279
 28
 13.328740
  C 0.943799 0.278578 0.400930
  C 2.383866 0.170640 0.392681
  C 3.196030 0.609173 1.546792
  C 2.446820 1.064843 2.781427
  C 3.426658 1.506672 3.864618
  C 3.028358 -0.325599 -0.782356
  C 4.414424 -0.419176 -0.969198
  C 5.085708 -0.877975 -2.082111
  C 4.621481 -1.391035 -3.371131
  C 3.142087 -1.494762 -3.673143
  H 3.013040 -1.891861 -4.668800
  H 6.160005 -0.868559 -2.023029
  H 0.462464 0.632157 1.313540
  H 1.042581 -0.810360 0.319091
  H 0.482368 0.672665 -0.467228
  H 3.818538 1.437075 1.190575
  H 3.894708 -0.184547 1.840801
  H 1.839745 0.249829 3.172215
  H 1.794502 1.900894 2.542566
  H 4.085148 0.690642 4.151536
  H 2.888809 1.830935 4.750948
  H 4.038927 2.337001 3.520619
  H 2.388169 -0.645384 -1.589038
  H 5.034817 -0.091109 -0.154524
  H 5.084480 -2.377694 -3.497056
  H 5.103786 -0.776142 -4.140941
  H 2.666078 -0.516660 -3.643855
  H 2.646593 -2.172850 -2.981228
 28
 21.314587
  C 0.920321 0.319215 0.395684
  C 2.352454 0.162074 0.387973
  C 3.183112 0.600906 1.548991
  C 2.451117 1.069287 2.807929
  C 3.451950 1.501607 3.871647
  C 2.990396 -0.329948 -0.779767
  C 4.384441 -0.424162 -0.961460
  C 5.063296 -0.875159 -2.059077
  C 4.630713 -1.390031 -3.368887
  C 3.156327 -1.509243 -3.717901
  H 3.063919 -1.905629 -4.727085
  H 6.145446 -0.858652 -1.975404
  H 0.446871 0.673912 1.280600
  H 1.186163 -0.772143 0.402385
  H 0.413987 0.616605 -0.507582
  H 3.793364 1.430179 1.172255
  H 3.883134 -0.190385 1.831176
  H 1.843384 0.260498 3.213391
  H 1.802933 1.915416 2.580988
  H 4.107263 0.679018 4.147313
  H 2.933924 1.832649 4.767513
  H 4.065977 2.324606 3.515103
  H 2.342880 -0.639397 -1.586144
  H 5.006109 -0.094869 -0.142201
  H 5.106210 -2.371914 -3.483978
  H 5.127188 -0.766018 -4.121849
  H 2.668955 -0.540337 -3.700593
  H 2.648450 -2.195219 -3.048997
 28
 26.822337
  C 0.938338 0.348608 0.391530
  C 2.357344 0.162450 0.390977
  C 3.189901 0.600939 1.551149
  C 2.447612 1.064561 2.794088
  C 3.438674 1.489868 3.871384
  C 2.999760 -0.329968 -0.786245
  C 4.378343 -0.422428 -0.961850
  C 5.061712 -0.876005 -2.060672
  C 4.628013 -1.393447 -3.377486
  C 3.149568 -1.507370 -3.720215
  H 3.051747 -1.902629 -4.727531
  H 6.139137 -0.860945 -1.971061
  H 0.446488 0.734791 1.274498
  H 1.327966 -0.730006 0.502904
  H 0.408825 0.520551 -0.537289
  H 3.793192 1.432580 1.179694
  H 3.890294 -0.187113 1.838662
  H 1.831005 0.257546 3.189956
  H 1.807069 1.913346 2.560779
  H 4.086867 0.664118 4.152864
  H 2.911861 1.821224 4.761709
  H 4.061124 2.310631 3.524581
  H 2.352888 -0.630991 -1.590700
  H 5.000496 -0.097236 -0.139537
  H 5.100252 -2.379717 -3.493246
  H 5.124675 -0.768450 -4.133679
  H 2.664695 -0.534403 -3.701254
  H 2.640664 -2.193725 -3.047936
 28
 29.561431
  C 0.939183 0.375883 0.381987
  C 2.352460 0.164316 0.395118
  C 3.193823 0.606181 1.555484
  C 2.444676 1.075911 2.796315
  C 3.433241 1.476557 3.888676
  C 2.994476 -0.332038 -0.794880
  C 4.374473 -0.424463 -0.975080
  C 5.059375 -0.876233 -2.072766
  C 4.630752 -1.394513 -3.389610
  C 3.154490 -1.513547 -3.735247
  H 3.060429 -1.908980 -4.743087
  H 6.136418 -0.856932 -1.982586
  H 0.441245 0.817736 1.229208
  H 1.434375 -0.684793 0.632400
  H 0.390831 0.382280 -0.549457
  H 3.805848 1.435650 1.188444
  H 3.885269 -0.192991 1.846487
  H 1.808750 0.279477 3.181106
  H 1.824776 1.937998 2.561138
  H 4.061845 0.637600 4.172446
  H 2.904066 1.813359 4.774755
  H 4.075243 2.286038 3.553621
  H 2.343433 -0.629728 -1.590947
  H 4.996658 -0.097741 -0.156299
  H 5.105150 -2.379042 -3.504818
  H 5.124730 -0.766817 -4.144748
  H 2.666742 -0.542120 -3.717354
  H 2.647152 -2.202076 -3.064028
 28
 33.229137
  C 0.940185 0.392630 0.367369
  C 2.348354 0.157396 0.387029
  C 3.196717 0.603928 1.550508
  C 2.449211 1.070703 2.775303
  C 3.435744 1.459701 3.876233
  C 2.993715 -0.333802 -0.788628
  C 4.369234 -0.417688 -0.961776
  C 5.062036 -0.865768 -2.057306
  C 4.630419 -1.389146 -3.380725
  C 3.148016 -1.511858 -3.718452
  H 3.044632 -1.913853 -4.740430
  H 6.154265 -0.840525 -1.965096
  H 0.447192 0.859844 1.202768
  H 1.519292 -0.651701 0.678824
  H 0.382784 0.325132 -0.552868
  H 3.810102 1.429599 1.193248
  H 3.881222 -0.201882 1.843011
  H 1.802172 0.276640 3.151276
  H 1.837662 1.939193 2.534954
  H 4.056519 0.612922 4.162680
  H 2.902505 1.799991 4.762827
  H 4.088904 2.265473 3.547778
  H 2.339249 -0.643856 -1.600826
  H 4.983480 -0.087140 -0.142701
  H 5.107380 -2.375326 -3.498690
  H 5.119503 -0.758593 -4.140775
  H 2.660240 -0.542830 -3.695944
  H 2.648207 -2.198247 -3.043588
 28
 35.653533
  C 0.931952 0.409847 0.358976
  C 2.339791 0.147928 0.395247
  C 3.199021 0.604709 1.558539
  C 2.450347 1.080520 2.797164
  C 3.437313 1.461637 3.893023
  C 2.988714 -0.349959 -0.802134
  C 4.366644 -0.431958 -0.978052
  C 5.058480 -0.875137 -2.077020
  C 4.635297 -1.391238 -3.393485
  C 3.163240 -1.516376 -3.735843
  H 3.068966 -1.908655 -4.741196
  H 6.133741 -0.848526 -1.985538
  H 0.430911 0.890007 1.185143
  H 1.572697 -0.644598 0.718749
  H 0.372365 0.283900 -0.551779
  H 3.818209 1.427883 1.196282
  H 3.871788 -0.195661 1.845947
  H 1.795085 0.288094 3.180418
  H 1.839121 1.963024 2.559011
  H 4.050622 0.612080 4.177323
  H 2.909743 1.804676 4.776737
  H 4.093198 2.260194 3.563222
  H 2.339326 -0.654298 -1.593714
  H 4.990982 -0.099568 -0.148331
  H 5.113765 -2.371729 -3.511627
  H 5.123330 -0.758716 -4.145675
  H 2.675068 -0.555093 -3.714100
  H 2.665178 -2.202377 -3.070589
 28
 38.383240
  C 0.935613 0.427095 0.358990
  C 2.337474 0.137959 0.409279
  C 3.201374 0.603065 1.557981
  C 2.449757 1.087526 2.810659
  C 3.431571 1.462382 3.895958
  C 2.986098 -0.358387 -0.798734
  C 4.362275 -0.439916 -0.975923
  C 5.060649 -0.878758 -2.077522
  C 4.648196 -1.388837 -3.393465
  C 3.163070 -1.520367 -3.753606
  H 3.078976 -1.912897 -4.771523
  H 6.143760 -0.849298 -1.980500
  H 0.435180 0.904150 1.174838
  H 1.628035 -0.648848 0.747418
  H 0.375590 0.265379 -0.544502
  H 3.823503 1.426317 1.186923
  H 3.875895 -0.199407 1.843090
  H 1.800364 0.309476 3.193986
  H 1.849737 1.962444 2.579234
  H 4.042877 0.606390 4.179696
  H 2.904986 1.808990 4.781074
  H 4.092299 2.261063 3.561145
  H 2.330902 -0.657690 -1.584380
  H 4.974665 -0.117583 -0.159273
  H 5.132601 -2.365859 -3.510075
  H 5.140483 -0.751167 -4.137075
  H 2.661314 -0.543806 -3.732628
  H 2.651950 -2.224874 -3.083378
 28
 39.844117
  C 0.938804 0.440542 0.341083
  C 2.336748 0.110365 0.420270
  C 3.207632 0.603144 1.569121
  C 2.454482 1.088658 2.798604
  C 3.433808 1.474847 3.897054
  C 2.999254 -0.378645 -0.800996
  C 4.370222 -0.462529 -0.968744
  C 5.067325 -0.891158 -2.075763
  C 4.643099 -1.385000 -3.401543
  C 3.164453 -1.500086 -3.744315
  H 3.067144 -1.875347 -4.754372
  H 6.141190 -0.866886 -1.982477
  H 0.423557 0.915386 1.164507
  H 1.682018 -0.695674 0.773538
  H 0.373107 0.236365 -0.562096
  H 3.821222 1.425420 1.192816
  H 3.885457 -0.191780 1.868585
  H 1.797132 0.306994 3.181352
  H 1.851846 1.962773 2.553453
  H 4.043851 0.622549 4.192607
  H 2.899153 1.827902 4.776823
  H 4.097149 2.271337 3.563155
  H 2.342660 -0.673114 -1.597154
  H 4.983132 -0.150629 -0.142481
  H 5.118741 -2.364063 -3.535500
  H 5.132344 -0.742212 -4.143086
  H 2.675606 -0.528962 -3.706049
  H 2.660258 -2.202070 -3.082803
 28
 41.920062
  C 0.946622 0.449469 0.318171
  C 2.343962 0.093122 0.418137
  C 3.211311 0.596864 1.561223
  C 2.449032 1.082602 2.787213
  C 3.431931 1.480833 3.901515
  C 3.009068 -0.387506 -0.794158
  C 4.389332 -0.470454 -0.959283
  C 5.081473 -0.895373 -2.071664
  C 4.636433 -1.382730 -3.402320
  C 3.154821 -1.485296 -3.719981
  H 3.035790 -1.856958 -4.737823
  H 6.160416 -0.874985 -1.986025
  H 0.433677 0.911444 1.130045
  H 1.735152 -0.711336 0.768965
  H 0.394577 0.232306 -0.575491
  H 3.822450 1.426112 1.180564
  H 3.897022 -0.200730 1.869329
  H 1.784544 0.287206 3.170644
  H 1.839396 1.959784 2.531818
  H 4.049073 0.626049 4.205448
  H 2.887369 1.837165 4.784966
  H 4.098845 2.285500 3.566412
  H 2.354151 -0.684168 -1.599739
  H 5.007584 -0.159641 -0.125041
  H 5.099528 -2.353801 -3.547279
  H 5.113616 -0.746803 -4.139537
  H 2.675757 -0.513211 -3.666980
  H 2.658137 -2.185516 -3.053697
 28
 43.352714
  C 0.941246 0.470385 0.323527
  C 2.333388 0.085475 0.436411
  C 3.215868 0.601645 1.575449
  C 2.460289 1.088386 2.809140
  C 3.439613 1.482486 3.904537
  C 2.995299 -0.395375 -0.792490
  C 4.365896 -0.478461 -0.960309
  C 5.064492 -0.899907 -2.074155
  C 4.646587 -1.381201 -3.399436
  C 3.169137 -1.497036 -3.753460
  H 3.079047 -1.864768 -4.768489
  H 6.139978 -0.875791 -1.979203
  H 0.425864 0.935426 1.141417
  H 1.767274 -0.729753 0.794108
  H 0.383020 0.237915 -0.571025
  H 3.823525 1.435655 1.185133
  H 3.903625 -0.191461 1.879148
  H 1.804324 0.299988 3.194889
  H 1.851961 1.961347 2.560563
  H 4.049380 0.641069 4.199525
  H 2.908518 1.834690 4.780519
  H 4.092979 2.273277 3.569978
  H 2.328894 -0.690069 -1.598510
  H 4.981199 -0.171427 -0.128894
  H 5.129308 -2.365854 -3.538502
  H 5.143079 -0.726173 -4.137956
  H 2.679652 -0.532074 -3.710497
  H 2.664563 -2.201221 -3.104799
 28
 43.572552
  C 0.949105 0.491146 0.317808
  C 2.327560 0.066471 0.449012
  C 3.214386 0.602848 1.575610
  C 2.461692 1.086881 2.811186
  C 3.444585 1.489727 3.903975
  C 2.995153 -0.405300 -0.792363
  C 4.365300 -0.492830 -0.955346
  C 5.064558 -0.906268 -2.065117
  C 4.648848 -1.380860 -3.404517
  C 3.176931 -1.495298 -3.769401
  H 3.094194 -1.857719 -4.792416
  H 6.145525 -0.881445 -1.963978
  H 0.425663 0.954662 1.143785
  H 1.816683 -0.777375 0.814793
  H 0.390057 0.257707 -0.572847
  H 3.801935 1.431893 1.180732
  H 3.911681 -0.179178 1.878908
  H 1.813161 0.296599 3.200333
  H 1.846959 1.953745 2.565162
  H 4.065531 0.645221 4.200672
  H 2.912353 1.841490 4.783908
  H 4.098117 2.291819 3.561821
  H 2.332484 -0.689226 -1.585163
  H 4.980510 -0.192801 -0.117990
  H 5.126614 -2.350410 -3.546979
  H 5.143204 -0.731037 -4.126370
  H 2.685391 -0.527748 -3.723579
  H 2.666411 -2.208002 -3.126535
 28
 43.143298
  C 0.963094 0.509939 0.296771
  C 2.330463 0.046713 0.450976
  C 3.216843 0.603269 1.572616
  C 2.460838 1.079918 2.811019
  C 3.443712 1.494153 3.906022
  C 3.006523 -0.416191 -0.794732
  C 4.374595 -0.505425 -0.951205
  C 5.073705 -0.916101 -2.069622
  C 4.647759 -1.378175 -3.400749
  C 3.171753 -1.482397 -3.746792
  H 3.073294 -1.838232 -4.770269
  H 6.152965 -0.893862 -1.974229
  H 0.438843 0.968820 1.113809
  H 1.878875 -0.825858 0.821162
  H 0.407661 0.282900 -0.598421
  H 3.791587 1.441991 1.170245
  H 3.922578 -0.165291 1.875870
  H 1.820517 0.282904 3.199836
  H 1.838182 1.937684 2.567582
  H 4.073136 0.656727 4.201831
  H 2.907094 1.842021 4.789985
  H 4.088308 2.302155 3.563087
  H 2.345007 -0.696702 -1.591156
  H 4.989404 -0.210331 -0.110594
  H 5.126444 -2.361042 -3.555916
  H 5.144723 -0.718601 -4.133315
  H 2.686186 -0.512926 -3.687860
  H 2.665906 -2.194342 -3.101324
