13

C 1.007308 -0.071545 0.047607
C 2.503573 -0.082504 0.026092
C 3.219137 -0.595398 -0.980807
C 4.656855 -0.605983 -1.001584
C 5.377827 -1.121115 -2.012873
H 6.4477110209759765 -1.1282666162405244 -2.0269099528539964
H 0.645147 0.394691 0.9629
H 0.611775 -1.086345 0.008927
H 0.611773 0.49383 -0.796
H 3.004022 0.352902 0.880869
H 2.706748 -1.028678 -1.831395
H 5.16098 -0.171012 -0.147668
H 4.873583 -1.555882 -2.866394
