 22
 0.000000
  C 1.018571 0.111450 0.328596
  C 2.491587 0.126037 0.364499
  C 3.244034 0.600822 1.545745
  C 2.433204 1.081029 2.741563
  H 3.106764 1.398524 3.531654
  C 3.148777 -0.332809 -0.777805
  C 4.536806 -0.401311 -0.949226
  C 5.168971 -0.854850 -2.079466
  C 4.547266 -1.346619 -3.305696
  H 3.466203 -1.344387 -3.301377
  H 6.250878 -0.857956 -2.086952
  H 0.561881 0.477610 1.240001
  H 0.663037 -0.903138 0.139407
  H 0.662879 0.713122 -0.509870
  H 3.907466 1.412033 1.223399
  H 3.907854 -0.207543 1.874171
  H 1.802260 0.288527 3.136348
  H 1.801939 1.926238 2.478535
  H 2.523933 -0.661443 -1.595511
  H 5.158381 -0.072128 -0.129316
  H 4.911632 -2.357068 -3.505039
  H 4.912418 -0.754467 -4.148128
 22
 0.400477
  C 1.022857 0.178001 0.303098
  C 2.493517 0.159311 0.344285
  C 3.231061 0.747750 1.479875
  C 2.444003 0.969589 2.766499
  H 3.126660 1.269873 3.556896
  C 3.151370 -0.425303 -0.734829
  C 4.539036 -0.559287 -0.884859
  C 5.170477 -0.945213 -2.042830
  C 4.556243 -1.309140 -3.316947
  H 3.476169 -1.225255 -3.333255
  H 6.251846 -0.985845 -2.023918
  H 0.581759 0.769418 1.096035
  H 0.645705 -0.844697 0.383686
  H 0.673260 0.539423 -0.664487
  H 3.620246 1.717949 1.142457
  H 4.114225 0.142921 1.699219
  H 1.944936 0.056207 3.079457
  H 1.701440 1.756324 2.662613
  H 2.525608 -0.775375 -1.543753
  H 5.171931 -0.314547 -0.043950
  H 4.848149 -2.331739 -3.569464
  H 4.985800 -0.698084 -4.113241
 22
 4.105092
  C 1.042656 0.190404 0.219928
  C 2.508310 0.069085 0.343490
  C 3.235392 0.812697 1.389874
  C 2.484295 1.000392 2.709060
  H 3.155776 1.443964 3.438826
  C 3.147227 -0.759624 -0.569737
  C 4.543035 -0.823907 -0.764185
  C 5.161549 -1.002175 -1.970501
  C 4.510190 -1.090418 -3.279020
  H 3.433778 -0.969848 -3.239409
  H 6.241370 -1.038819 -1.981141
  H 0.611939 0.887767 0.934140
  H 0.579709 -0.788582 0.348596
  H 0.775871 0.508568 -0.792410
  H 3.461545 1.809049 0.990420
  H 4.198150 0.336395 1.590866
  H 2.146774 0.040863 3.095610
  H 1.626589 1.661165 2.612260
  H 2.520514 -1.326838 -1.246734
  H 5.183445 -0.675383 0.098388
  H 4.762891 -2.056885 -3.729268
  H 4.935381 -0.349443 -3.956681
 22
 13.933179
  C 1.149676 0.159209 0.083981
  C 2.612160 0.027373 0.297565
  C 3.271289 0.823587 1.354642
  C 2.434081 1.046430 2.618354
  H 3.050868 1.545431 3.357529
  C 3.210973 -1.023288 -0.364981
  C 4.602993 -0.937980 -0.694281
  C 5.132902 -0.973703 -1.939499
  C 4.366348 -0.886182 -3.188748
  H 3.300339 -0.742880 -3.019157
  H 6.204294 -1.066195 -2.044803
  H 0.701380 0.890351 0.740140
  H 0.669840 -0.807692 0.218493
  H 0.950058 0.463110 -0.945736
  H 3.534111 1.803497 0.949027
  H 4.209450 0.337967 1.639250
  H 2.112089 0.099734 3.030366
  H 1.566908 1.672578 2.445245
  H 2.602479 -1.761990 -0.871661
  H 5.281050 -0.888883 0.147526
  H 4.533027 -1.805936 -3.757838
  H 4.747793 -0.080239 -3.818852
 22
 35.358665
  C 1.327664 0.043467 -0.031627
  C 2.813043 -0.141209 0.308621
  C 3.348922 0.749620 1.350264
  C 2.355956 1.193164 2.428363
  H 2.919610 1.688583 3.217233
  C 3.234756 -1.352251 -0.170895
  C 4.600358 -1.118685 -0.655686
  C 5.039707 -0.867374 -1.893141
  C 4.178882 -0.578756 -3.062550
  H 3.130573 -0.503150 -2.797434
  H 6.110568 -0.856308 -2.079888
  H 0.918930 0.891758 0.504102
  H 0.800115 -0.875918 0.227324
  H 1.231781 0.222711 -1.104343
  H 3.760127 1.649613 0.878020
  H 4.176094 0.232232 1.840142
  H 1.830399 0.341687 2.853274
  H 1.635157 1.917526 2.059900
  H 2.658641 -2.217878 -0.426422
  H 5.320735 -1.351798 0.125267
  H 4.319516 -1.367611 -3.803866
  H 4.496546 0.343935 -3.547102
 22
 72.125490
  C 1.449061 0.014748 -0.108894
  C 3.108990 -0.227451 0.317780
  C 3.420205 0.732003 1.388803
  C 2.313528 1.192543 2.336451
  H 2.793958 1.753454 3.135676
  C 3.133176 -1.483168 -0.175101
  C 4.515654 -1.147528 -0.583893
  C 4.936408 -0.852119 -1.847720
  C 4.096291 -0.447885 -2.978301
  H 3.060299 -0.299818 -2.698655
  H 6.001859 -0.963166 -2.045408
  H 1.145806 0.900827 0.412798
  H 0.948268 -0.874874 0.232998
  H 1.443858 0.140766 -1.178894
  H 3.935239 1.605043 0.967537
  H 4.157691 0.211327 2.011217
  H 1.789340 0.347110 2.775894
  H 1.604537 1.857113 1.866775
  H 2.486003 -2.225723 -0.574949
  H 5.251016 -1.400923 0.172186
  H 4.141588 -1.223246 -3.748599
  H 4.496223 0.445337 -3.431045
 22
 96.286424
  C 0.946458 -0.032457 -0.240118
  C 3.295121 -0.397738 0.385034
  C 3.640557 0.633312 1.342198
  C 2.504991 1.233715 2.170311
  H 2.944498 1.860074 2.944703
  C 3.122915 -1.557202 -0.140120
  C 4.577198 -1.239398 -0.476757
  C 4.969671 -0.816545 -1.711579
  C 4.101435 -0.271438 -2.757053
  H 3.083727 -0.117654 -2.420084
  H 6.017429 -0.903842 -1.957268
  H 0.722387 0.843339 0.330083
  H 0.564395 -0.963326 0.120058
  H 1.084967 0.089405 -1.294530
  H 4.170064 1.441687 0.828599
  H 4.345182 0.161102 2.039393
  H 1.911813 0.457156 2.648664
  H 1.860716 1.861531 1.566092
  H 2.473716 -2.290357 -0.552358
  H 5.313607 -1.632358 0.211606
  H 4.103282 -0.949212 -3.611824
  H 4.519248 0.663919 -3.130522
 22
 96.389127
  C 0.549001 -0.047000 -0.346258
  C 3.431458 -0.437000 0.458463
  C 3.846863 0.591035 1.379046
  C 2.670073 1.256725 2.101097
  H 3.057743 1.922039 2.867028
  C 3.113591 -1.523160 -0.112944
  C 4.617562 -1.283300 -0.426206
  C 4.991929 -0.848730 -1.661289
  C 4.128988 -0.201014 -2.643112
  H 3.139768 0.025257 -2.257402
  H 6.021188 -1.013240 -1.957478
  H 0.432291 0.823918 0.260008
  H 0.161625 -0.974615 0.016253
  H 0.713125 0.074772 -1.395804
  H 4.429639 1.348984 0.851446
  H 4.499059 0.118637 2.121610
  H 2.033730 0.515452 2.575421
  H 2.075949 1.844876 1.409197
  H 2.427817 -2.190721 -0.571644
  H 5.340109 -1.761895 0.219806
  H 4.042567 -0.847019 -3.519290
  H 4.610625 0.705532 -3.010341
 22
 94.370315
  C 0.836924 -0.412248 -0.639126
  C 3.310076 -0.364110 0.528661
  C 3.905121 0.569865 1.466210
  C 2.860876 1.454477 2.158222
  H 3.341853 2.050039 2.929308
  C 2.749753 -1.334461 -0.077860
  C 4.341199 -1.278878 -0.353392
  C 4.796978 -0.892970 -1.581034
  C 4.092585 -0.036932 -2.543904
  H 3.183187 0.394237 -2.137029
  H 5.766928 -1.263518 -1.890348
  H 0.808715 0.488682 -0.059091
  H 0.192290 -1.210578 -0.321983
  H 1.000004 -0.316704 -1.695761
  H 4.633114 1.193227 0.944027
  H 4.439982 -0.018665 2.219028
  H 2.088975 0.848104 2.625016
  H 2.395568 2.132503 1.447555
  H 2.097490 -2.081545 -0.528849
  H 4.955600 -1.920722 0.265426
  H 3.855639 -0.620924 -3.436749
  H 4.759629 0.755500 -2.885979
 22
 82.499985
  C 1.014514 -0.476127 -0.503769
  C 3.239851 -0.323343 0.433402
  C 3.836134 0.513665 1.477558
  C 2.833883 1.452570 2.163075
  H 3.322357 1.974391 2.981229
  C 2.546631 -1.265099 -0.171633
  C 4.394434 -1.058352 -0.326833
  C 4.829525 -0.804925 -1.572570
  C 4.087874 -0.103406 -2.637027
  H 3.160984 0.331665 -2.279376
  H 5.822810 -1.153509 -1.829785
  H 0.914399 0.388718 0.130516
  H 0.303082 -1.259110 -0.282920
  H 1.061166 -0.242362 -1.556708
  H 4.655859 1.093546 1.053674
  H 4.248700 -0.164495 2.230573
  H 1.996094 0.892713 2.570137
  H 2.462156 2.197496 1.463912
  H 2.135853 -2.091025 -0.706516
  H 5.018149 -1.592191 0.379601
  H 3.877547 -0.794692 -3.452968
  H 4.714942 0.679698 -3.061705
 22
 59.095722
  C 1.040287 -0.534322 -0.290945
  C 3.279901 -0.403109 0.352274
  C 3.792594 0.463675 1.416895
  C 2.780002 1.459397 1.986687
  H 3.237845 2.007583 2.804305
  C 2.386749 -1.306487 -0.057138
  C 4.470460 -1.056711 -0.348304
  C 4.888159 -0.825005 -1.596706
  C 4.192595 -0.011873 -2.620550
  H 3.315264 0.488310 -2.219204
  H 5.856953 -1.219700 -1.889622
  H 0.984295 0.353247 0.327430
  H 0.259584 -1.244033 -0.019546
  H 0.953258 -0.287648 -1.346765
  H 4.672008 0.982181 1.055800
  H 4.092178 -0.197347 2.225821
  H 1.889224 0.942994 2.372923
  H 2.477728 2.181787 1.232534
  H 2.138030 -2.090416 -0.746513
  H 5.073495 -1.641421 0.342383
  H 3.894663 -0.648880 -3.458408
  H 4.875713 0.722328 -3.028599
 22
 32.080040
  C 0.965980 -0.439585 -0.195510
  C 3.379085 -0.390074 0.282134
  C 3.763405 0.421749 1.445763
  C 2.724754 1.405687 1.994188
  H 3.123872 1.882041 2.884878
  C 2.292100 -1.134536 -0.075435
  C 4.590619 -0.954888 -0.379456
  C 5.000455 -0.797858 -1.628266
  C 4.233500 -0.126458 -2.709896
  H 3.340245 0.348511 -2.320299
  H 5.986892 -1.158852 -1.909670
  H 0.928653 0.452427 0.425935
  H 0.174604 -1.134062 0.102441
  H 0.764264 -0.165176 -1.229427
  H 4.691561 0.946528 1.205170
  H 3.994409 -0.279716 2.252327
  H 1.797194 0.902987 2.276385
  H 2.503546 2.184894 1.257851
  H 2.261851 -1.970665 -0.774785
  H 5.214905 -1.468831 0.339211
  H 3.955630 -0.864725 -3.468406
  H 4.851972 0.619357 -3.206678
 22
 15.165903
  C 0.934006 -0.455624 -0.068098
  C 3.482521 -0.400967 0.243879
  C 3.732618 0.419974 1.470488
  C 2.667307 1.412368 1.928963
  H 3.051786 1.944039 2.799936
  C 2.298469 -0.947253 -0.202872
  C 4.717451 -0.879251 -0.355477
  C 5.053535 -0.817776 -1.655188
  C 4.241910 -0.189010 -2.717291
  H 3.355101 0.301737 -2.320142
  H 5.992668 -1.247984 -1.972217
  H 0.819963 0.359294 0.638174
  H 0.238372 -1.261629 0.162305
  H 0.625218 -0.098487 -1.054204
  H 4.680799 0.944151 1.327529
  H 3.901573 -0.285441 2.294887
  H 1.750157 0.922918 2.236160
  H 2.453342 2.144073 1.155217
  H 2.379003 -1.743570 -0.934332
  H 5.425037 -1.300454 0.350454
  H 3.955938 -0.954566 -3.438383
  H 4.833349 0.535419 -3.272246
 22
 10.130925
  C 0.972429 -0.295786 -0.130907
  C 3.536232 -0.279291 0.228968
  C 3.731121 0.462042 1.515813
  C 2.590607 1.278232 2.106393
  H 2.965791 1.797393 2.986234
  C 2.351902 -0.717568 -0.333772
  C 4.772894 -0.722610 -0.354476
  C 5.042233 -0.864255 -1.675937
  C 4.193133 -0.439482 -2.795763
  H 3.306483 0.096565 -2.471973
  H 5.997782 -1.290185 -1.952711
  H 0.823277 0.437984 0.648187
  H 0.333848 -1.167743 0.021305
  H 0.614643 0.132360 -1.074152
  H 4.597127 1.116515 1.379302
  H 4.037200 -0.279539 2.263436
  H 1.766277 0.652797 2.436933
  H 2.233973 2.027964 1.405501
  H 2.456891 -1.511409 -1.064923
  H 5.577029 -0.919663 0.343572
  H 3.921361 -1.310925 -3.394442
  H 4.767890 0.198566 -3.469042
 22
 9.730994
  C 1.010075 -0.104487 -0.221377
  C 3.556782 -0.201084 0.219549
  C 3.739121 0.536280 1.514635
  C 2.536067 1.081561 2.271873
  H 2.886371 1.495412 3.215783
  C 2.370075 -0.611970 -0.362054
  C 4.801340 -0.592552 -0.376588
  C 5.044177 -0.875419 -1.684813
  C 4.159319 -0.651240 -2.828875
  H 3.271592 -0.087770 -2.571732
  H 6.021158 -1.268796 -1.930243
  H 0.871438 0.632187 0.555749
  H 0.306997 -0.932498 -0.114220
  H 0.734073 0.363999 -1.172519
  H 4.438179 1.358137 1.322926
  H 4.271251 -0.151885 2.181450
  H 1.817792 0.300577 2.508608
  H 2.049175 1.886518 1.728235
  H 2.454554 -1.444309 -1.047639
  H 5.651463 -0.605229 0.294374
  H 3.893112 -1.608152 -3.279226
  H 4.706007 -0.117319 -3.606355
