 26
 0.000000
  C 1.014318 0.117703 0.344878
  C 2.490431 0.131054 0.378392
  C 3.245763 0.606595 1.561098
  C 2.439975 1.090253 2.763567
  C 3.370364 1.541206 3.885666
  C 3.141666 -0.327028 -0.761018
  C 4.523325 -0.396763 -0.935445
  C 5.169142 -0.854324 -2.077547
  C 4.530474 -1.349865 -3.313498
  H 3.450104 -1.354921 -3.325869
  O 6.481160 -0.879159 -2.141440
  H 0.547969 0.482715 1.252598
  H 0.660351 -0.897679 0.160174
  H 0.660444 0.722691 -0.491273
  H 3.904465 1.422259 1.242163
  H 3.904267 -0.202908 1.895684
  H 1.802177 0.288329 3.139322
  H 1.802555 1.929334 2.479523
  H 4.005904 0.723342 4.217955
  H 2.792125 1.884736 4.739836
  H 4.006277 2.361213 3.559397
  H 2.511927 -0.654267 -1.575426
  H 5.147344 -0.067463 -0.115292
  H 4.898001 -2.360463 -3.500062
  H 4.897899 -0.747979 -4.146517
  H 6.927585 -0.556491 -1.336442
 26
 6.092856
  C 0.989744 0.108313 0.317343
  C 2.423634 0.126296 0.365150
  C 3.187430 0.597964 1.540480
  C 2.417437 1.090069 2.762822
  C 3.390487 1.527114 3.854965
  C 3.129969 -0.332065 -0.774054
  C 4.506613 -0.388909 -0.918184
  C 5.188663 -0.847665 -2.062932
  C 4.555989 -1.349572 -3.305447
  H 3.476234 -1.338571 -3.271311
  O 6.505182 -0.860731 -2.105411
  H 0.807608 0.497364 1.285576
  H 0.580535 -0.881836 0.176552
  H 0.582035 0.726748 -0.469284
  H 3.849165 1.405092 1.211220
  H 3.847356 -0.213802 1.861767
  H 1.784319 0.296205 3.164052
  H 1.786891 1.942568 2.502761
  H 4.024202 0.699763 4.165768
  H 2.846143 1.878459 4.727607
  H 4.026996 2.337722 3.507891
  H 2.516970 -0.662630 -1.596499
  H 5.120373 -0.055660 -0.091417
  H 4.906275 -2.364180 -3.496542
  H 4.902350 -0.749220 -4.147041
  H 6.944731 -0.535233 -1.301849
 26
 20.622135
  C 0.949330 0.101350 0.298419
  C 2.369487 0.122907 0.355968
  C 3.149293 0.592572 1.526871
  C 2.410540 1.090771 2.765012
  C 3.415641 1.517683 3.833137
  C 3.113358 -0.337221 -0.786941
  C 4.499465 -0.388268 -0.917915
  C 5.189125 -0.839663 -2.043948
  C 4.576982 -1.344181 -3.289648
  H 3.496563 -1.338282 -3.266506
  O 6.502434 -0.845158 -2.069775
  H 1.006859 0.491693 1.270495
  H 0.507694 -0.877264 0.196164
  H 0.509761 0.738489 -0.452518
  H 3.811213 1.395403 1.186719
  H 3.809270 -0.223914 1.837108
  H 1.779471 0.303393 3.186245
  H 1.782285 1.952744 2.524120
  H 4.048295 0.683809 4.128185
  H 2.896086 1.874293 4.718862
  H 4.051533 2.321908 3.470457
  H 2.507586 -0.669658 -1.613048
  H 5.106679 -0.053058 -0.088282
  H 4.933923 -2.357160 -3.474990
  H 4.929042 -0.741935 -4.127027
  H 6.932087 -0.515863 -1.257208
 26
 39.053931
  C 0.921700 0.088369 0.263352
  C 2.334319 0.121801 0.351840
  C 3.137746 0.596791 1.537420
  C 2.415520 1.090765 2.765953
  C 3.432450 1.514610 3.828152
  C 3.104343 -0.338961 -0.792731
  C 4.491280 -0.384624 -0.911491
  C 5.184767 -0.833071 -2.028559
  C 4.577196 -1.339492 -3.273244
  H 3.497380 -1.335901 -3.253029
  O 6.494065 -0.835793 -2.050760
  H 1.149169 0.470634 1.217479
  H 0.469510 -0.889859 0.184136
  H 0.471779 0.742671 -0.470148
  H 3.802648 1.401828 1.194790
  H 3.800768 -0.223581 1.847039
  H 1.781767 0.303238 3.191999
  H 1.785034 1.956566 2.529106
  H 4.065374 0.677748 4.118547
  H 2.920168 1.872951 4.718843
  H 4.069087 2.317827 3.460758
  H 2.505340 -0.673058 -1.622154
  H 5.092836 -0.047839 -0.080279
  H 4.937408 -2.352279 -3.456536
  H 4.930819 -0.737414 -4.110648
  H 6.916275 -0.507530 -1.245004
 26
 58.153807
  C 0.891103 0.089290 0.264495
  C 2.318898 0.122837 0.354649
  C 3.134013 0.590957 1.523333
  C 2.411922 1.092178 2.769555
  C 3.433878 1.514174 3.827654
  C 3.109414 -0.335557 -0.783592
  C 4.486511 -0.380174 -0.900334
  C 5.188717 -0.834217 -2.031613
  C 4.584056 -1.343185 -3.281198
  H 3.502372 -1.341772 -3.265113
  O 6.489274 -0.835346 -2.050970
  H 1.283790 0.457659 1.185675
  H 0.429777 -0.880131 0.210132
  H 0.432721 0.754818 -0.443456
  H 3.793105 1.388000 1.178231
  H 3.790890 -0.225266 1.825667
  H 1.775663 0.301007 3.198433
  H 1.779119 1.962853 2.532170
  H 4.062861 0.680828 4.113953
  H 2.929012 1.872441 4.717976
  H 4.066750 2.311755 3.459827
  H 2.512578 -0.672105 -1.618934
  H 5.089066 -0.043493 -0.070156
  H 4.947421 -2.356505 -3.463578
  H 4.940185 -0.740059 -4.118945
  H 6.925225 -0.495716 -1.218187
 26
 74.749990
  C 0.877021 0.082201 0.247203
  C 2.311063 0.121417 0.356227
  C 3.144597 0.591784 1.527927
  C 2.420197 1.094915 2.774393
  C 3.428194 1.514520 3.826375
  C 3.104678 -0.335894 -0.776957
  C 4.486961 -0.378971 -0.893444
  C 5.183554 -0.829690 -2.021143
  C 4.576443 -1.336447 -3.267361
  H 3.498855 -1.335806 -3.251332
  O 6.488036 -0.831449 -2.043552
  H 1.376213 0.434578 1.133006
  H 0.421303 -0.887840 0.201876
  H 0.422618 0.759076 -0.449505
  H 3.801945 1.384583 1.181239
  H 3.798099 -0.222887 1.827495
  H 1.789996 0.314980 3.194492
  H 1.794931 1.951785 2.536875
  H 4.054843 0.683241 4.114436
  H 2.921734 1.871443 4.710386
  H 4.060164 2.310391 3.460425
  H 2.500642 -0.678475 -1.626921
  H 5.089315 -0.043516 -0.066344
  H 4.937982 -2.345294 -3.450629
  H 4.929683 -0.735288 -4.101671
  H 6.919051 -0.499435 -1.227282
 26
 87.159806
  C 0.875172 0.070332 0.216739
  C 2.335820 0.105708 0.347958
  C 3.176877 0.590311 1.526301
  C 2.423354 1.101992 2.768731
  C 3.419276 1.527448 3.852033
  C 3.094606 -0.354212 -0.767786
  C 4.488466 -0.386965 -0.895057
  C 5.171504 -0.824374 -2.016796
  C 4.558336 -1.329692 -3.262540
  H 3.476682 -1.332050 -3.239951
  O 6.492285 -0.825663 -2.049044
  H 1.481961 0.403727 1.079811
  H 0.412097 -0.901789 0.160765
  H 0.395080 0.773255 -0.443143
  H 3.844935 1.383997 1.180729
  H 3.819604 -0.238279 1.830906
  H 1.774585 0.310982 3.178690
  H 1.793817 1.968174 2.510746
  H 4.045381 0.689555 4.156885
  H 2.890311 1.889437 4.733903
  H 4.064709 2.329320 3.495174
  H 2.497101 -0.691542 -1.592956
  H 5.092701 -0.049630 -0.072081
  H 4.922809 -2.338180 -3.451960
  H 4.906566 -0.723359 -4.097614
  H 6.921913 -0.498654 -1.241883
 26
 92.830913
  C 0.867738 0.057242 0.178829
  C 2.369050 0.085168 0.349999
  C 3.216404 0.593552 1.549733
  C 2.434339 1.114407 2.770744
  C 3.402910 1.544829 3.870516
  C 3.090707 -0.380934 -0.753493
  C 4.492660 -0.399349 -0.893916
  C 5.162275 -0.820811 -2.019507
  C 4.544744 -1.319778 -3.272128
  H 3.465860 -1.324209 -3.245828
  O 6.486626 -0.826992 -2.063370
  H 1.572539 0.371439 1.050517
  H 0.413152 -0.918353 0.099216
  H 0.359253 0.792561 -0.417680
  H 3.881322 1.379789 1.208988
  H 3.835886 -0.239415 1.862255
  H 1.776163 0.324577 3.165486
  H 1.811780 1.976771 2.489403
  H 4.020251 0.710354 4.192391
  H 2.856148 1.911545 4.736472
  H 4.054937 2.341862 3.523416
  H 2.490061 -0.722751 -1.580062
  H 5.095999 -0.065500 -0.074588
  H 4.908747 -2.324601 -3.469748
  H 4.887949 -0.705689 -4.100878
  H 6.915954 -0.506821 -1.254028
 26
 95.879019
  C 0.855574 0.052869 0.140122
  C 2.387738 0.062047 0.370796
  C 3.233962 0.581912 1.570745
  C 2.439141 1.121223 2.764236
  C 3.393591 1.557375 3.871938
  C 3.084671 -0.416754 -0.741627
  C 4.488800 -0.415198 -0.891889
  C 5.153781 -0.816606 -2.021564
  C 4.540977 -1.318026 -3.281006
  H 3.458781 -1.341148 -3.252773
  O 6.479281 -0.805056 -2.075201
  H 1.626670 0.331943 1.048202
  H 0.431318 -0.924068 0.008974
  H 0.349015 0.866848 -0.339007
  H 3.908041 1.364175 1.225226
  H 3.838964 -0.260459 1.899886
  H 1.770557 0.348563 3.163324
  H 1.832700 1.985334 2.469032
  H 3.998515 0.721532 4.214557
  H 2.836838 1.941226 4.723159
  H 4.059087 2.343773 3.524557
  H 2.491358 -0.771473 -1.572316
  H 5.091862 -0.065580 -0.067196
  H 4.919941 -2.319994 -3.484635
  H 4.872367 -0.687039 -4.106486
  H 6.903672 -0.482424 -1.262608
 26
 99.704899
  C 0.849289 0.030040 0.104131
  C 2.380543 0.037831 0.384711
  C 3.235415 0.575364 1.579869
  C 2.440215 1.130878 2.770774
  C 3.394996 1.585865 3.872680
  C 3.087069 -0.441408 -0.739089
  C 4.489852 -0.438210 -0.888397
  C 5.155401 -0.823089 -2.023721
  C 4.543135 -1.294935 -3.292407
  H 3.459880 -1.310007 -3.267457
  O 6.481364 -0.818501 -2.074592
  H 1.653960 0.285251 1.053948
  H 0.447678 -0.942260 -0.085912
  H 0.322379 0.899331 -0.240758
  H 3.908572 1.356906 1.220097
  H 3.841393 -0.266086 1.918040
  H 1.773808 0.364570 3.181970
  H 1.831908 1.989059 2.464092
  H 4.002424 0.756325 4.225957
  H 2.838130 1.980233 4.718223
  H 4.058271 2.368945 3.514408
  H 2.496919 -0.783151 -1.569896
  H 5.094599 -0.110388 -0.056386
  H 4.914418 -2.295203 -3.513718
  H 4.881041 -0.650965 -4.104230
  H 6.905876 -0.514218 -1.254270
 26
 103.925395
  C 0.841552 0.032339 0.068849
  C 2.356012 0.011529 0.383194
  C 3.226341 0.561071 1.584032
  C 2.443958 1.139369 2.773875
  C 3.411744 1.594112 3.862388
  C 3.083291 -0.454528 -0.743237
  C 4.482862 -0.450082 -0.879506
  C 5.158247 -0.823340 -2.014402
  C 4.555658 -1.297913 -3.289895
  H 3.478867 -1.334089 -3.269074
  O 6.480813 -0.788314 -2.064431
  H 1.691788 0.254315 1.071307
  H 0.436415 -0.916750 -0.195806
  H 0.281706 0.934767 -0.121755
  H 3.905024 1.331149 1.210014
  H 3.819227 -0.286972 1.924053
  H 1.771496 0.389243 3.198610
  H 1.845887 2.001929 2.461166
  H 4.009229 0.758391 4.221794
  H 2.865983 2.008781 4.705932
  H 4.084690 2.363081 3.490700
  H 2.496783 -0.798376 -1.573420
  H 5.083071 -0.106278 -0.050316
  H 4.943120 -2.287386 -3.518154
  H 4.883083 -0.642881 -4.093754
  H 6.898452 -0.479438 -1.240318
 26
 106.985506
  C 0.980935 -0.812889 0.294711
  C 2.461520 -0.346875 0.506657
  C 3.201967 0.583622 1.593777
  C 2.365500 1.020579 2.832530
  C 3.234523 1.868743 3.774297
  C 3.203904 -0.636317 -0.670329
  C 4.510131 -0.198830 -0.959066
  C 5.166272 -0.427153 -2.153117
  C 4.635887 -1.182354 -3.332824
  H 3.627908 -1.564178 -3.182362
  O 6.403806 0.022494 -2.354226
  H 1.848371 -0.213668 1.318122
  H 0.877167 -1.847397 0.036717
  H 0.135245 -0.136103 0.220646
  H 3.567230 1.484826 1.082036
  H 4.068477 -0.013865 1.927980
  H 1.998631 0.141650 3.400106
  H 1.492370 1.624521 2.522265
  H 4.102011 1.295842 4.129052
  H 2.652694 2.186592 4.648457
  H 3.599345 2.769274 3.263996
  H 2.686916 -1.224276 -1.414895
  H 5.044686 0.392128 -0.215424
  H 5.309272 -2.016377 -3.554647
  H 4.652119 -0.526235 -4.208418
  H 6.769717 0.521811 -1.595960
 26
 101.845747
  C 0.900067 -0.599655 0.209941
  C 2.340257 -0.293902 0.431520
  C 3.144021 0.566744 1.574145
  C 2.382694 1.033141 2.833318
  C 3.338667 1.787859 3.753081
  C 3.137831 -0.627152 -0.703519
  C 4.486855 -0.308862 -0.905024
  C 5.181970 -0.547845 -2.064269
  C 4.656611 -1.197452 -3.299918
  H 3.622528 -1.492230 -3.219518
  O 6.452951 -0.181370 -2.189277
  H 1.945498 -0.146036 1.327755
  H 0.655689 -1.583659 -0.136705
  H 0.129012 0.146642 0.272743
  H 3.544563 1.449277 1.074003
  H 3.956285 -0.096658 1.859264
  H 1.970532 0.188476 3.387526
  H 1.562379 1.699443 2.560261
  H 4.157586 1.147125 4.066185
  H 2.816376 2.129762 4.640165
  H 3.753791 2.659711 3.256065
  H 2.618190 -1.148664 -1.489395
  H 5.021227 0.220683 -0.126132
  H 5.264587 -2.069786 -3.531937
  H 4.771674 -0.506713 -4.131869
  H 6.809545 0.262061 -1.399120
