 19
 0.000000
  C -3.087387 -0.936704 -1.829777
  C -2.763756 -1.739881 -0.605101
  C -2.161947 -3.096156 -0.906579
  C -1.776013 -1.102581 0.454973
  C -1.119813 0.160486 0.031527
  O -1.582113 -1.657494 1.485100
  H -3.847267 -1.477332 -2.399338
  H -2.237186 -0.829964 -2.501205
  H -3.516456 0.033005 -1.589469
  H -3.669828 -1.842166 0.013497
  H -1.220092 -3.024436 -1.450980
  H -2.845846 -3.639643 -1.559485
  H -1.993915 -3.667477 0.003951
  H -1.458550 0.547948 -0.919849
  H -0.048481 -0.042002 -0.014004
  H -1.289599 0.890325 0.824552
  O 2.926901 -0.250543 -0.051650
  H 1.986365 -0.052563 -0.007750
  H 3.183262 -0.607818 0.801976
 19
 1.636834
  C -3.046183 -0.922944 -1.811170
  C -2.709513 -1.729412 -0.595901
  C -2.102715 -3.074836 -0.900366
  C -1.711922 -1.086093 0.455504
  C -1.071627 0.159216 0.021270
  O -1.508368 -1.639867 1.489427
  H -3.817341 -1.460602 -2.368944
  H -2.207265 -0.821999 -2.496498
  H -3.469664 0.045607 -1.564277
  H -3.598853 -1.825857 0.039071
  H -1.171182 -2.994353 -1.460182
  H -2.790423 -3.624380 -1.546171
  H -1.919772 -3.645307 0.005685
  H -1.411425 0.540756 -0.928553
  H -0.006756 -0.041201 -0.026347
  H -1.220846 0.892060 0.809341
  O 2.645462 -0.336168 -0.087505
  H 1.711566 -0.094434 -0.040554
  H 2.895895 -0.662539 0.788944
 19
 3.371168
  C -3.021516 -0.917953 -1.808158
  C -2.680240 -1.725952 -0.590786
  C -2.055684 -3.070808 -0.890702
  C -1.684626 -1.069426 0.466670
  C -1.032168 0.184479 0.022046
  O -1.494303 -1.619376 1.499511
  H -3.797429 -1.454807 -2.360110
  H -2.185721 -0.820686 -2.498290
  H -3.443963 0.051436 -1.562170
  H -3.566950 -1.827105 0.053794
  H -1.125209 -2.981710 -1.456028
  H -2.741082 -3.631998 -1.534794
  H -1.865108 -3.639954 0.019280
  H -1.356948 0.560342 -0.928280
  H 0.052055 -0.024881 -0.019692
  H -1.175712 0.925112 0.808825
  O 2.458030 -0.328109 -0.100175
  H 1.520866 -0.089981 -0.015093
  H 2.697720 -0.823927 0.681953
 19
 7.405824
  C -2.988828 -0.910658 -1.796383
  C -2.659333 -1.717733 -0.589014
  C -2.040269 -3.067744 -0.890213
  C -1.655906 -1.070685 0.472748
  C -0.991820 0.169539 0.024166
  O -1.478557 -1.617771 1.511044
  H -3.774436 -1.436832 -2.341742
  H -2.156508 -0.827543 -2.485203
  H -3.397488 0.065757 -1.547225
  H -3.547257 -1.814608 0.053717
  H -1.108050 -2.986064 -1.456167
  H -2.727064 -3.624977 -1.535262
  H -1.855691 -3.637367 0.013627
  H -1.314402 0.552387 -0.938585
  H 0.101463 -0.059854 0.006472
  H -1.131430 0.916810 0.805922
  O 2.305782 -0.368351 -0.152001
  H 1.366809 -0.103900 -0.054349
  H 2.579330 -0.761994 0.687540
 19
 13.377390
  C -2.985531 -0.910888 -1.796629
  C -2.639692 -1.716756 -0.583983
  C -2.009495 -3.049450 -0.885306
  C -1.632694 -1.062810 0.475624
  C -0.957492 0.181603 0.026263
  O -1.460927 -1.614195 1.510644
  H -3.772064 -1.444765 -2.336347
  H -2.155616 -0.821256 -2.495826
  H -3.398210 0.060067 -1.548897
  H -3.521707 -1.820272 0.059684
  H -1.082247 -2.952459 -1.453841
  H -2.695568 -3.615470 -1.528857
  H -1.814934 -3.618745 0.020799
  H -1.276947 0.560681 -0.932939
  H 0.158972 -0.050654 0.001513
  H -1.105078 0.924865 0.810062
  O 2.194060 -0.423602 -0.164695
  H 1.248417 -0.118794 -0.059814
  H 2.467104 -0.796315 0.678484
 19
 21.946329
  C -2.973138 -0.908771 -1.789944
  C -2.630320 -1.711903 -0.571457
  C -1.973773 -3.035773 -0.875192
  C -1.624833 -1.046468 0.482067
  C -0.965837 0.190519 0.020772
  O -1.456392 -1.586096 1.525524
  H -3.753668 -1.445338 -2.335332
  H -2.134826 -0.809861 -2.478928
  H -3.387519 0.064513 -1.543321
  H -3.516501 -1.824263 0.068119
  H -1.044625 -2.920326 -1.432198
  H -2.640580 -3.606010 -1.524670
  H -1.777189 -3.608391 0.029545
  H -1.281355 0.554242 -0.946109
  H 0.191244 -0.043870 -0.005114
  H -1.110829 0.944390 0.798788
  O 2.129858 -0.484650 -0.192567
  H 1.157881 -0.115859 -0.074055
  H 2.392374 -0.876275 0.647948
 19
 35.102425
  C -2.970775 -0.901913 -1.783373
  C -2.623289 -1.706890 -0.570618
  C -1.958804 -3.026610 -0.876843
  C -1.622174 -1.040616 0.481429
  C -0.968269 0.189773 0.016875
  O -1.456041 -1.585841 1.524413
  H -3.750981 -1.441138 -2.325746
  H -2.141248 -0.799982 -2.473132
  H -3.389487 0.060837 -1.535683
  H -3.506441 -1.827943 0.070494
  H -1.030513 -2.903715 -1.434913
  H -2.624091 -3.597676 -1.527129
  H -1.758683 -3.605007 0.031727
  H -1.277163 0.552234 -0.953411
  H 0.245202 -0.058262 -0.019739
  H -1.102397 0.950846 0.789142
  O 2.113907 -0.507022 -0.189484
  H 1.095174 -0.136101 -0.081024
  H 2.373779 -0.864786 0.666947
 19
 53.087655
  C -2.985723 -0.905765 -1.786587
  C -2.634337 -1.707728 -0.571624
  C -1.957808 -3.021150 -0.878397
  C -1.640082 -1.032063 0.484143
  C -0.997108 0.198154 0.020019
  O -1.470564 -1.577036 1.526777
  H -3.760814 -1.452247 -2.329458
  H -2.153667 -0.798216 -2.476795
  H -3.416095 0.059272 -1.539292
  H -3.516205 -1.837916 0.066446
  H -1.027985 -2.889152 -1.434445
  H -2.619484 -3.598847 -1.532768
  H -1.757023 -3.594410 0.022821
  H -1.300266 0.557524 -0.952374
  H 0.318266 -0.063524 -0.020485
  H -1.128479 0.959501 0.786554
  O 2.202127 -0.523316 -0.180016
  H 1.087568 -0.130330 -0.072461
  H 2.456696 -0.869447 0.683612
 19
 75.621192
  C -3.015763 -0.912505 -1.790945
  C -2.651753 -1.708880 -0.574989
  C -1.957813 -3.014139 -0.886926
  C -1.664324 -1.020949 0.483157
  C -1.033729 0.208986 0.019603
  O -1.498872 -1.558987 1.530977
  H -3.783720 -1.469637 -2.331235
  H -2.185577 -0.794928 -2.482190
  H -3.459175 0.047661 -1.544223
  H -3.532102 -1.853626 0.062876
  H -1.030707 -2.868512 -1.443530
  H -2.612718 -3.597602 -1.540990
  H -1.748931 -3.586960 0.011886
  H -1.321975 0.562460 -0.957946
  H 0.401603 -0.068699 -0.014634
  H -1.160637 0.976307 0.780554
  O 2.328488 -0.546998 -0.159908
  H 1.100981 -0.121958 -0.055434
  H 2.575100 -0.874135 0.711821
 19
 100.617096
  C -3.056861 -0.921457 -1.799458
  C -2.684001 -1.711239 -0.579954
  C -1.954737 -2.999171 -0.890770
  C -1.715823 -1.008786 0.481791
  C -1.110395 0.222510 0.018393
  O -1.547172 -1.549147 1.531979
  H -3.808892 -1.492496 -2.347994
  H -2.221742 -0.783363 -2.479195
  H -3.514381 0.029107 -1.554930
  H -3.565207 -1.880475 0.053255
  H -1.031864 -2.834914 -1.445038
  H -2.596320 -3.591060 -1.543266
  H -1.746279 -3.578635 0.011966
  H -1.374261 0.576338 -0.965180
  H 0.496818 -0.070613 -0.003523
  H -1.228287 1.000029 0.772389
  O 2.536528 -0.582441 -0.142484
  H 1.153770 -0.104899 -0.037359
  H 2.765348 -0.899886 0.735384
 19
 119.361186
  C -3.181588 -0.941997 -1.805196
  C -2.760584 -1.724421 -0.586699
  C -1.968028 -2.968354 -0.911278
  C -1.791697 -0.990616 0.473223
  C -1.237381 0.233767 -0.018344
  O -1.623745 -1.517931 1.528850
  H -3.915020 -1.545005 -2.343713
  H -2.363152 -0.768603 -2.494804
  H -3.683796 -0.007937 -1.552623
  H -3.624777 -1.933642 0.046610
  H -1.054757 -2.749059 -1.477949
  H -2.587813 -3.579739 -1.571951
  H -1.725716 -3.549197 -0.021859
  H -1.428564 0.562819 -1.031133
  H 0.652542 -0.078299 0.032387
  H -1.333354 1.028179 0.711653
  O 2.977167 -0.634818 -0.040141
  H 1.328481 -0.086679 0.010171
  H 3.165965 -0.901646 0.864882
 19
 130.367637
  C -3.304998 -0.960838 -1.810011
  C -2.850959 -1.727604 -0.604094
  C -2.000884 -2.923721 -0.940190
  C -1.847117 -0.986810 0.475339
  C -1.347980 0.206502 -0.059047
  O -1.713705 -1.521694 1.528948
  H -4.023706 -1.587117 -2.341159
  H -2.497626 -0.753193 -2.504549
  H -3.829368 -0.045647 -1.551022
  H -3.699218 -1.964317 0.037929
  H -1.097339 -2.657157 -1.492787
  H -2.593717 -3.554543 -1.608092
  H -1.720043 -3.497735 -0.055636
  H -1.465132 0.476275 -1.096115
  H 0.810787 -0.093473 0.069280
  H -1.445360 1.041673 0.629582
  O 3.410850 -0.648667 0.065214
  H 1.497528 -0.068598 0.053701
  H 3.586386 -0.853692 0.987397
 19
 131.251834
  C -3.447852 -0.965349 -1.831944
  C -2.954512 -1.716153 -0.633434
  C -2.059950 -2.865989 -0.965041
  C -1.881309 -1.007417 0.518110
  C -1.461494 0.122784 -0.105664
  O -1.824965 -1.563157 1.556161
  H -4.162408 -1.615072 -2.327894
  H -2.673954 -0.749494 -2.552053
  H -3.990764 -0.059649 -1.571708
  H -3.800013 -1.976797 0.005074
  H -1.164480 -2.572884 -1.515143
  H -2.630398 -3.502583 -1.642131
  H -1.764021 -3.447387 -0.097986
  H -1.505237 0.304627 -1.162791
  H 1.011941 -0.095243 0.117712
  H -1.601085 1.013941 0.511183
  O 3.931500 -0.628408 0.194175
  H 1.726336 -0.020299 0.095836
  H 4.122275 -0.723840 1.132147
 19
 132.406284
  C -3.527988 -0.969353 -1.851161
  C -3.029872 -1.715260 -0.660159
  C -2.128284 -2.852472 -0.993805
  C -1.913337 -1.022744 0.530257
  C -1.542990 0.089141 -0.138324
  O -1.878869 -1.591648 1.553439
  H -4.263891 -1.621470 -2.327376
  H -2.762214 -0.769406 -2.596705
  H -4.063570 -0.060783 -1.591793
  H -3.864265 -1.980222 -0.011137
  H -1.240325 -2.549806 -1.555928
  H -2.701687 -3.495147 -1.672276
  H -1.818345 -3.437185 -0.129015
  H -1.539211 0.236287 -1.202736
  H 1.164433 -0.070948 0.145364
  H -1.720889 0.990763 0.444447
  O 4.288316 -0.569290 0.276235
  H 1.863589 0.030686 0.119130
  H 4.480535 -0.597520 1.220861
