 15
 0.000000
  C 0.934992 0.136067 0.405566
  C 2.402897 0.137483 0.400913
  C 3.205839 0.597290 1.545652
  C 2.476137 1.097601 2.768816
  H 3.187834 1.402547 3.529476
  C 3.060182 -0.310656 -0.723102
  H 4.134484 -0.336651 -0.794049
  H 0.505028 0.496443 1.332762
  H 0.563497 -0.872139 0.208422
  H 0.553317 0.744250 -0.418213
  H 3.891669 1.378548 1.184099
  H 3.882545 -0.221670 1.833455
  H 1.834076 0.324841 3.191365
  H 1.842567 1.951758 2.530348
  H 2.497233 -0.652750 -1.576690
 15
 2.527288
  C 0.926214 0.091598 0.446160
  C 2.376170 0.132673 0.403287
  C 3.194289 0.605492 1.535232
  C 2.474882 1.106840 2.764678
  H 3.192815 1.411396 3.521231
  C 3.035655 -0.298812 -0.725897
  H 4.110519 -0.314057 -0.780400
  H 0.470578 0.466503 1.358728
  H 0.513379 -0.883325 0.185395
  H 0.748643 0.732093 -0.403477
  H 3.899868 1.370417 1.173751
  H 3.872356 -0.220660 1.809554
  H 1.830499 0.339298 3.192291
  H 1.846961 1.966997 2.531023
  H 2.495886 -0.634100 -1.595263
 15
 7.813454
  C 0.911897 0.046452 0.479590
  C 2.367097 0.123194 0.413414
  C 3.191158 0.618620 1.526476
  C 2.476063 1.117662 2.753414
  H 3.197616 1.424548 3.503402
  C 3.024976 -0.292706 -0.724741
  H 4.102000 -0.313271 -0.776326
  H 0.437970 0.419027 1.383652
  H 0.462342 -0.886425 0.133380
  H 0.917393 0.739333 -0.347686
  H 3.897541 1.376372 1.168044
  H 3.852137 -0.219306 1.795990
  H 1.836037 0.350823 3.184343
  H 1.854719 1.981152 2.520696
  H 2.488175 -0.610363 -1.604151
 15
 13.427534
  C 0.919775 0.013370 0.503790
  C 2.361592 0.115957 0.403883
  C 3.190776 0.628719 1.519172
  C 2.465682 1.131761 2.750434
  H 3.188566 1.443995 3.502824
  C 3.011264 -0.299234 -0.740416
  H 4.085995 -0.335534 -0.792826
  H 0.449495 0.354706 1.411840
  H 0.443855 -0.866279 0.081632
  H 1.059417 0.770895 -0.274717
  H 3.894090 1.389370 1.158579
  H 3.840073 -0.217914 1.793903
  H 1.829157 0.361432 3.184332
  H 1.844454 1.996507 2.515408
  H 2.469572 -0.605266 -1.620012
 15
 18.992172
  C 0.910802 -0.006767 0.526169
  C 2.365004 0.116401 0.395217
  C 3.192017 0.634904 1.518302
  C 2.463615 1.137157 2.743596
  H 3.180778 1.449402 3.492783
  C 3.008949 -0.296219 -0.753405
  H 4.083499 -0.339522 -0.807755
  H 0.431593 0.325181 1.431438
  H 0.415924 -0.858132 0.077707
  H 1.177313 0.775734 -0.245121
  H 3.892857 1.394254 1.160932
  H 3.836229 -0.208568 1.797415
  H 1.831132 0.368535 3.176492
  H 1.844298 1.998445 2.507112
  H 2.463119 -0.596021 -1.633281
 15
 23.026859
  C 0.918830 -0.032460 0.542538
  C 2.346022 0.114945 0.396447
  C 3.193885 0.638765 1.511472
  C 2.463720 1.146892 2.736045
  H 3.192170 1.466142 3.487288
  C 2.997703 -0.299767 -0.754688
  H 4.082361 -0.343069 -0.798326
  H 0.437477 0.280624 1.446347
  H 0.403635 -0.832303 0.011454
  H 1.265531 0.794958 -0.175189
  H 3.884893 1.398870 1.140546
  H 3.830711 -0.204665 1.801220
  H 1.836589 0.369193 3.180614
  H 1.837881 2.011185 2.496675
  H 2.454049 -0.600261 -1.644299
 15
 25.341393
  C 0.919405 -0.051710 0.554940
  C 2.348535 0.118690 0.389275
  C 3.194636 0.644705 1.502921
  C 2.457802 1.152924 2.731415
  H 3.174004 1.481523 3.470628
  C 3.003007 -0.313544 -0.764930
  H 4.073288 -0.372140 -0.802966
  H 0.444999 0.232592 1.477271
  H 0.395866 -0.784510 -0.036290
  H 1.337916 0.835566 -0.104978
  H 3.873659 1.413198 1.128477
  H 3.836238 -0.194969 1.793200
  H 1.852962 0.378266 3.179060
  H 1.827569 1.998114 2.493736
  H 2.462448 -0.610245 -1.644269
 15
 27.204390
  C 0.925016 -0.066402 0.562221
  C 2.346367 0.124173 0.383824
  C 3.194898 0.649429 1.497069
  C 2.455233 1.157246 2.725861
  H 3.175257 1.499777 3.462824
  C 3.002401 -0.318926 -0.768676
  H 4.076786 -0.394877 -0.799562
  H 0.457893 0.192036 1.492121
  H 0.385334 -0.749488 -0.082426
  H 1.399916 0.869727 -0.043442
  H 3.869614 1.431192 1.115206
  H 3.847639 -0.190130 1.792550
  H 1.860089 0.373258 3.186769
  H 1.810637 1.998709 2.485456
  H 2.456247 -0.621639 -1.649133
 15
 29.011120
  C 0.936149 -0.081195 0.559185
  C 2.343585 0.126896 0.375348
  C 3.199128 0.652413 1.493588
  C 2.453714 1.165929 2.731994
  H 3.171850 1.520001 3.463928
  C 2.999499 -0.326381 -0.777233
  H 4.087486 -0.407859 -0.806453
  H 0.463462 0.160074 1.500832
  H 0.392985 -0.709202 -0.116399
  H 1.453270 0.886419 0.000924
  H 3.850492 1.421157 1.114089
  H 3.847547 -0.168277 1.785397
  H 1.876741 0.389131 3.196744
  H 1.806370 1.989713 2.493663
  H 2.447860 -0.634965 -1.658521
 15
 30.486843
  C 0.928006 -0.093827 0.565234
  C 2.350532 0.137260 0.377662
  C 3.210020 0.657707 1.498122
  C 2.462656 1.166656 2.722159
  H 3.175384 1.531773 3.449390
  C 3.004253 -0.330131 -0.773741
  H 4.076371 -0.398581 -0.807431
  H 0.452553 0.131363 1.501457
  H 0.374547 -0.680502 -0.150617
  H 1.494138 0.910325 0.039639
  H 3.865298 1.444261 1.112594
  H 3.868293 -0.168877 1.796907
  H 1.887939 0.373589 3.197576
  H 1.798158 1.991744 2.473588
  H 2.453550 -0.653156 -1.643574
 15
 32.325261
  C 0.937973 -0.099579 0.568012
  C 2.352047 0.143482 0.374552
  C 3.214402 0.660317 1.494665
  C 2.464339 1.175052 2.727701
  H 3.174828 1.543219 3.448250
  C 3.007363 -0.329330 -0.778200
  H 4.072347 -0.393035 -0.812121
  H 0.467062 0.124408 1.499555
  H 0.379363 -0.670589 -0.167062
  H 1.537713 0.914374 0.057171
  H 3.855773 1.430513 1.111546
  H 3.866794 -0.156800 1.791017
  H 1.891459 0.377553 3.211765
  H 1.797387 1.997732 2.480082
  H 2.454586 -0.657292 -1.648414
 15
 33.880683
  C 0.934666 -0.109849 0.571644
  C 2.353002 0.151490 0.373006
  C 3.220044 0.664515 1.498358
  C 2.467240 1.174604 2.721136
  H 3.171947 1.545884 3.441671
  C 3.008839 -0.327199 -0.776642
  H 4.079371 -0.386128 -0.812277
  H 0.460733 0.117896 1.508109
  H 0.378672 -0.657068 -0.171804
  H 1.569314 0.924858 0.066385
  H 3.874354 1.452372 1.109097
  H 3.878820 -0.160572 1.799045
  H 1.897421 0.376115 3.204601
  H 1.797429 1.994820 2.470964
  H 2.454855 -0.660730 -1.644019
 15
 35.490641
  C 0.940381 -0.117465 0.572349
  C 2.357095 0.162086 0.370960
  C 3.226291 0.670180 1.499418
  C 2.471883 1.179865 2.724416
  H 3.177096 1.551963 3.445696
  C 3.010249 -0.323650 -0.780330
  H 4.079215 -0.382074 -0.819389
  H 0.463985 0.112643 1.505163
  H 0.383352 -0.653581 -0.181925
  H 1.602716 0.931523 0.069993
  H 3.874494 1.453826 1.116616
  H 3.884140 -0.157594 1.800427
  H 1.906798 0.383563 3.205283
  H 1.797764 2.001137 2.473231
  H 2.454379 -0.664523 -1.642184
 15
 37.199593
  C 0.936695 -0.127655 0.572156
  C 2.362417 0.169535 0.368285
  C 3.233411 0.673571 1.501341
  C 2.478239 1.182904 2.724783
  H 3.190096 1.561034 3.453853
  C 3.014681 -0.324884 -0.779656
  H 4.088967 -0.373086 -0.823783
  H 0.451970 0.109864 1.505485
  H 0.382140 -0.650619 -0.186367
  H 1.632172 0.939319 0.066373
  H 3.890836 1.465816 1.116886
  H 3.876129 -0.141786 1.798031
  H 1.910057 0.381929 3.208902
  H 1.809749 1.994809 2.473511
  H 2.459806 -0.667392 -1.638969
