 25
 0.000000
  C 0.909687 0.036664 0.295002
  C 2.396731 0.047674 0.070687
  C 3.221912 -0.027262 1.332569
  H 2.637642 -0.066489 2.243776
  C 2.995284 0.121245 -1.134696
  C 2.350909 0.213383 -2.504500
  C 0.839110 0.208763 -2.714067
  C 0.528532 0.309133 -4.205748
  C 4.456313 0.124354 -1.221544
  C 5.199724 0.196641 -2.322345
  H 6.276234 0.192194 -2.288744
  H 0.683122 -0.030468 1.355575
  H 0.443092 -0.814611 -0.193919
  H 0.447745 0.945939 -0.081128
  H 3.874113 0.845206 1.400029
  H 3.857037 -0.912669 1.305689
  H 2.755243 -0.620537 -3.088937
  H 2.735422 1.131728 -2.962256
  H 0.375278 1.055053 -2.209310
  H 0.399631 -0.712091 -2.332528
  H 0.936004 1.228056 -4.622408
  H -0.546578 0.306437 -4.371435
  H 0.959395 -0.531443 -4.745992
  H 4.994468 0.060054 -0.288191
  H 4.814839 0.265573 -3.325869
 25
 -0.469245
  C 0.932926 0.201301 0.300032
  C 2.410994 0.070132 0.051674
  C 3.215729 -0.150833 1.311172
  H 2.567849 -0.460198 2.127299
  C 3.004436 0.145024 -1.154238
  C 2.359273 0.270234 -2.519751
  C 0.849399 0.159801 -2.714016
  C 0.510903 0.240780 -4.200351
  C 4.466709 0.147942 -1.233779
  C 5.219138 0.186740 -2.329820
  H 6.293747 0.214744 -2.255089
  H 0.726551 0.189430 1.367402
  H 0.373621 -0.613174 -0.153589
  H 0.552878 1.139402 -0.097671
  H 3.721205 0.766042 1.617287
  H 3.965919 -0.925820 1.171730
  H 2.808317 -0.516592 -3.134328
  H 2.684717 1.226749 -2.943879
  H 0.329479 0.965644 -2.199148
  H 0.490062 -0.793994 -2.327022
  H 0.845432 1.188189 -4.618319
  H -0.563250 0.160656 -4.351760
  H 0.994478 -0.564206 -4.750268
  H 4.989970 0.158758 -0.289954
  H 4.831302 0.192916 -3.333146
 25
 -0.294969
  C 0.949927 0.333747 0.313448
  C 2.411448 0.103521 0.045668
  C 3.188848 -0.254975 1.287867
  H 2.548790 -0.825112 1.959334
  C 3.008354 0.163913 -1.159204
  C 2.362562 0.308070 -2.522281
  C 0.857543 0.126971 -2.703322
  C 0.499713 0.183540 -4.186217
  C 4.471722 0.188652 -1.235018
  C 5.231773 0.167954 -2.326470
  H 6.303191 0.248535 -2.247787
  H 0.770096 0.357613 1.385962
  H 0.326496 -0.450599 -0.109243
  H 0.627051 1.287127 -0.098686
  H 3.527356 0.633692 1.821000
  H 4.044360 -0.878791 1.046480
  H 2.839376 -0.445961 -3.154979
  H 2.643966 1.286715 -2.926833
  H 0.304867 0.908831 -2.186183
  H 0.550367 -0.841267 -2.305716
  H 0.786303 1.143007 -4.612317
  H -0.571139 0.053535 -4.325784
  H 1.014098 -0.601188 -4.737482
  H 4.985548 0.302722 -0.291911
  H 4.851489 0.069950 -3.327930
 25
 0.657331
  C 0.974593 0.471303 0.323977
  C 2.408050 0.129229 0.034156
  C 3.151003 -0.370552 1.243819
  H 2.551157 -1.152913 1.711509
  C 3.016575 0.184822 -1.165371
  C 2.367870 0.346416 -2.524910
  C 0.870500 0.095409 -2.686549
  C 0.489529 0.114034 -4.164335
  C 4.479170 0.240343 -1.233503
  C 5.249233 0.177767 -2.315803
  H 6.314408 0.317737 -2.238223
  H 0.835751 0.554249 1.400076
  H 0.282455 -0.285732 -0.039962
  H 0.708384 1.424933 -0.125707
  H 3.320409 0.409331 1.984472
  H 4.086041 -0.828558 0.940225
  H 2.870159 -0.374407 -3.175245
  H 2.603608 1.343314 -2.912951
  H 0.288896 0.857073 -2.171391
  H 0.615625 -0.879848 -2.268065
  H 0.729707 1.078112 -4.608342
  H -0.576743 -0.062803 -4.286333
  H 1.028437 -0.656767 -4.711746
  H 4.978762 0.438594 -0.295599
  H 4.881897 -0.009618 -3.309435
 25
 3.318176
  C 1.027082 0.648476 0.326984
  C 2.397483 0.123340 0.015865
  C 3.088141 -0.528193 1.181419
  H 2.540984 -1.448777 1.403384
  C 3.028506 0.180032 -1.174326
  C 2.372657 0.361468 -2.527283
  C 0.883619 0.051462 -2.660898
  C 0.477684 0.008192 -4.130965
  C 4.484353 0.290662 -1.222561
  C 5.266406 0.275387 -2.298895
  H 6.319883 0.481806 -2.213184
  H 0.936592 0.780034 1.403085
  H 0.228632 -0.024764 0.014517
  H 0.871578 1.610959 -0.154239
  H 3.101720 0.078242 2.083262
  H 4.080407 -0.845280 0.876091
  H 2.893411 -0.329789 -3.195332
  H 2.565781 1.372411 -2.900923
  H 0.281488 0.806468 -2.159268
  H 0.673265 -0.916896 -2.201788
  H 0.672669 0.966581 -4.608261
  H -0.582664 -0.213059 -4.228484
  H 1.036552 -0.757874 -4.663957
  H 4.962553 0.495645 -0.274492
  H 4.914147 0.076755 -3.296007
 25
 11.900494
  C 1.109781 0.852454 0.325271
  C 2.353427 0.098960 -0.015861
  C 2.999767 -0.691733 1.083312
  H 2.455132 -1.637832 1.168677
  C 3.032793 0.126834 -1.182601
  C 2.387227 0.314331 -2.539350
  C 0.910629 -0.063260 -2.642501
  C 0.458247 -0.098278 -4.099277
  C 4.469346 0.345525 -1.172225
  C 5.277886 0.447938 -2.227520
  H 6.313749 0.722676 -2.099733
  H 1.077413 1.000972 1.400811
  H 0.189667 0.337544 0.044851
  H 1.117538 1.819765 -0.169474
  H 3.028391 -0.220173 2.057225
  H 3.956083 -1.017240 0.671379
  H 2.945473 -0.311943 -3.237606
  H 2.501160 1.355916 -2.861812
  H 0.300125 0.667531 -2.113447
  H 0.746567 -1.040466 -2.180979
  H 0.594937 0.875883 -4.564084
  H -0.594474 -0.364779 -4.166873
  H 1.032564 -0.828587 -4.664290
  H 4.897315 0.541809 -0.200700
  H 4.958324 0.288612 -3.245714
 25
 26.816526
  C 1.157584 1.012440 0.395482
  C 2.341499 0.163367 0.012780
  C 2.937093 -0.823557 0.969736
  H 2.329340 -1.737473 0.957443
  C 3.028840 0.134121 -1.177726
  C 2.411080 0.268377 -2.550420
  C 0.930677 -0.111462 -2.632509
  C 0.464980 -0.192967 -4.083607
  C 4.442716 0.454453 -1.129686
  C 5.269648 0.603616 -2.164557
  H 6.280013 0.946074 -2.011217
  H 1.081153 1.034650 1.481675
  H 0.200940 0.638372 0.014790
  H 1.291459 2.028000 0.021167
  H 3.061019 -0.494843 1.994745
  H 3.778986 -1.203948 0.324624
  H 2.966920 -0.431776 -3.190056
  H 2.562983 1.267776 -2.975657
  H 0.329960 0.633334 -2.116724
  H 0.776723 -1.075851 -2.147023
  H 0.608425 0.762129 -4.580195
  H -0.593985 -0.450441 -4.135570
  H 1.027764 -0.950136 -4.628125
  H 4.852393 0.585937 -0.134453
  H 4.978359 0.449124 -3.186445
 25
 52.511697
  C 1.285842 1.183026 0.444645
  C 2.268585 0.151074 0.025654
  C 2.827534 -0.903857 0.900154
  H 2.403465 -1.908641 0.759079
  C 2.996481 0.054257 -1.158401
  C 2.405825 0.222246 -2.544025
  C 0.938173 -0.189339 -2.640122
  C 0.475200 -0.267966 -4.092894
  C 4.402528 0.447226 -1.085061
  C 5.225563 0.682711 -2.107190
  H 6.226309 1.041497 -1.935248
  H 1.244447 1.211095 1.531982
  H 0.269438 0.966236 0.092547
  H 1.566446 2.155046 0.044066
  H 2.955375 -0.687333 1.957714
  H 3.601317 -1.175659 0.062436
  H 2.975355 -0.432231 -3.206184
  H 2.522803 1.249830 -2.905761
  H 0.305704 0.512102 -2.096035
  H 0.815749 -1.173648 -2.179781
  H 0.583478 0.700077 -4.577046
  H -0.568602 -0.566151 -4.144632
  H 1.068567 -0.995480 -4.641459
  H 4.758900 0.649857 -0.081380
  H 4.953590 0.562084 -3.140449
 25
 71.306144
  C 1.336828 1.257511 0.458028
  C 2.268445 0.167813 0.063370
  C 2.677443 -0.909139 0.870983
  H 2.361312 -1.912154 0.610944
  C 3.039803 0.044266 -1.146084
  C 2.413750 0.190054 -2.521094
  C 0.957025 -0.264717 -2.594123
  C 0.464533 -0.317601 -4.035053
  C 4.447605 0.473908 -1.060892
  C 5.261132 0.734614 -2.079308
  H 6.260579 1.091877 -1.903682
  H 1.252260 1.286169 1.543560
  H 0.336089 1.086468 0.056070
  H 1.681662 2.225117 0.095841
  H 2.721619 -0.795664 1.956127
  H 3.534572 -1.096663 -0.312854
  H 2.994879 -0.420534 -3.216808
  H 2.494164 1.228104 -2.859276
  H 0.323382 0.419529 -2.030595
  H 0.864314 -1.254399 -2.141014
  H 0.535257 0.664629 -4.497499
  H -0.573017 -0.640805 -4.074475
  H 1.062079 -1.013765 -4.619769
  H 4.816447 0.621749 -0.052581
  H 4.978648 0.613384 -3.109098
 25
 52.305438
  C 1.409723 1.300157 0.449481
  C 2.286017 0.156158 0.109137
  C 2.525787 -0.911081 0.907008
  H 2.312229 -1.921042 0.588424
  C 3.079347 -0.013145 -1.160128
  C 2.410129 0.169779 -2.509654
  C 0.967888 -0.313902 -2.576391
  C 0.457998 -0.348553 -4.014771
  C 4.501670 0.455891 -1.067852
  C 5.278133 0.796909 -2.070767
  H 6.273809 1.175326 -1.894845
  H 1.272225 1.360179 1.529004
  H 0.431100 1.151883 -0.004147
  H 1.809167 2.246104 0.083593
  H 2.530068 -0.842842 1.994722
  H 3.423494 -1.048834 -0.654392
  H 2.978291 -0.416202 -3.235521
  H 2.482442 1.215927 -2.822004
  H 0.322930 0.338304 -1.990290
  H 0.902364 -1.314768 -2.140034
  H 0.490134 0.646018 -4.454817
  H -0.568700 -0.707620 -4.049995
  H 1.071660 -1.009622 -4.623472
  H 4.876691 0.548858 -0.055311
  H 4.968031 0.742899 -3.103963
 25
 28.466243
  C 1.554845 1.354777 0.400824
  C 2.291055 0.094914 0.110165
  C 2.432357 -0.928845 0.953622
  H 2.264119 -1.943632 0.632105
  C 3.078402 -0.121012 -1.164414
  C 2.436211 0.049653 -2.527522
  C 0.986971 -0.428050 -2.582423
  C 0.424054 -0.324882 -3.995927
  C 4.454564 0.495339 -1.041697
  C 5.213121 0.933256 -2.027753
  H 6.186143 1.350576 -1.832840
  H 1.414203 1.474504 1.474094
  H 0.571346 1.297011 -0.059706
  H 2.062844 2.233512 0.005331
  H 2.283162 -0.841159 2.027401
  H 3.432919 -1.131848 -0.835641
  H 3.008016 -0.520809 -3.260656
  H 2.489681 1.104323 -2.808830
  H 0.365558 0.166856 -1.910076
  H 0.942824 -1.466978 -2.248653
  H 0.497357 0.700595 -4.350497
  H -0.620010 -0.630482 -4.016992
  H 0.971827 -0.964599 -4.684957
  H 4.813638 0.572010 -0.022478
  H 4.915557 0.896994 -3.061463
 25
 11.713436
  C 1.681043 1.386462 0.349223
  C 2.321095 0.059128 0.103663
  C 2.284258 -0.954737 0.960192
  H 2.270551 -1.981493 0.633244
  C 3.105119 -0.175277 -1.171463
  C 2.422130 0.059100 -2.511519
  C 0.981726 -0.446864 -2.558519
  C 0.407040 -0.351520 -3.967094
  C 4.461141 0.474498 -1.030117
  C 5.184583 1.008358 -1.996065
  H 6.155953 1.429493 -1.797080
  H 1.436927 1.509759 1.402568
  H 0.755686 1.437719 -0.220888
  H 2.317767 2.211665 0.030557
  H 2.015173 -0.849210 2.003020
  H 3.395451 -1.228959 -0.991458
  H 2.987640 -0.476923 -3.278160
  H 2.456767 1.122122 -2.759379
  H 0.354149 0.132532 -1.881152
  H 0.955379 -1.486099 -2.223051
  H 0.419726 0.679550 -4.314643
  H -0.620624 -0.707206 -3.986973
  H 0.990807 -0.952532 -4.661255
  H 4.833003 0.489435 -0.012925
  H 4.864467 1.031444 -3.023214
 25
 0.986380
  C 1.822366 1.405855 0.268769
  C 2.314399 0.007551 0.070189
  C 2.114931 -0.954994 0.956030
  H 2.292952 -1.989518 0.728109
  C 3.134165 -0.252349 -1.172841
  C 2.424657 0.042036 -2.491662
  C 1.013418 -0.538228 -2.543280
  C 0.387404 -0.355734 -3.920443
  C 4.446492 0.466789 -1.009236
  C 5.127520 1.096341 -1.949525
  H 6.075113 1.562349 -1.736719
  H 1.519041 1.568789 1.299023
  H 0.959669 1.585452 -0.372287
  H 2.589998 2.130587 0.003418
  H 1.664572 -0.760629 1.917202
  H 3.401153 -1.318242 -1.124317
  H 3.003052 -0.406498 -3.301773
  H 2.393817 1.119816 -2.660490
  H 0.380418 -0.059333 -1.796083
  H 1.055845 -1.602506 -2.300871
  H 0.337354 0.699997 -4.179638
  H -0.621336 -0.761324 -3.939855
  H 0.976148 -0.865467 -4.679831
  H 4.834439 0.433590 0.000911
  H 4.789371 1.166113 -2.967287
 25
 -1.118895
  C 2.030399 1.505129 0.300184
  C 2.305728 0.052019 0.059225
  C 1.865878 -0.898185 0.869775
  H 2.043148 -1.943883 0.672082
  C 3.137318 -0.279263 -1.161239
  C 2.399895 0.033027 -2.468100
  C 1.065135 -0.700922 -2.569871
  C 0.372551 -0.422641 -3.898239
  C 4.463589 0.424022 -1.030990
  C 5.058950 1.180498 -1.931278
  H 6.017762 1.631171 -1.736673
  H 1.622988 1.662353 1.295706
  H 1.307135 1.874082 -0.426955
  H 2.941154 2.091694 0.189140
  H 1.358599 -0.690009 1.801897
  H 3.358891 -1.354339 -1.130693
  H 3.030327 -0.267210 -3.307646
  H 2.230491 1.109151 -2.542711
  H 0.414270 -0.393455 -1.748695
  H 1.236417 -1.775139 -2.467501
  H 0.184020 0.642765 -4.014837
  H -0.579234 -0.946433 -3.951743
  H 0.992438 -0.752052 -4.729591
  H 4.946541 0.252362 -0.075743
  H 4.632566 1.385701 -2.897992
 25
 -1.549994
  C 2.023264 1.499700 0.281895
  C 2.313379 0.046174 0.058647
  C 1.871911 -0.894365 0.878351
  H 2.070706 -1.938746 0.711308
  C 3.147126 -0.286354 -1.160706
  C 2.403628 0.034523 -2.462784
  C 1.072250 -0.705388 -2.563952
  C 0.369821 -0.415732 -3.884661
  C 4.478573 0.405259 -1.037148
  C 5.060161 1.187850 -1.926553
  H 6.024785 1.628745 -1.737079
  H 1.606007 1.663800 1.271883
  H 1.304945 1.858320 -0.454988
  H 2.931783 2.090034 0.174065
  H 1.296931 -0.655475 1.757497
  H 3.350290 -1.364723 -1.139940
  H 3.033120 -0.257478 -3.305774
  H 2.228715 1.109743 -2.530059
  H 0.425392 -0.410875 -1.735057
  H 1.249598 -1.779737 -2.475076
  H 0.173341 0.649595 -3.987286
  H -0.578539 -0.945356 -3.938836
  H 0.986926 -0.730848 -4.723546
  H 4.977868 0.205560 -0.095837
  H 4.614978 1.426218 -2.876854
