19
 0
 C -2.71400745 0.41592828 2.53004802
 C -2.66668659 -0.93887108 1.83410189
 C -4.07742709 -1.38093536 1.44869565
 C -1.75740335 -1.03151907 0.60754774
 C -1.07638465 0.18979549 0.04487727
 O -1.58950370 -2.12104029 0.04762837
 H -3.33297094 0.36514610 3.43254286
 H -3.13917384 1.18847356 1.88016059
 H -1.71305751 0.73693370 2.83684546
 H -2.26011017 -1.65843910 2.55687042
 H -4.51113436 -0.71002983 0.69907924
 H -4.73703284 -1.39142028 2.32294447
 H -4.07303201 -2.39070563 1.02396294
 H -1.23101067 1.08680013 0.64164494
 H -1.46037107 0.37781551 -0.96133461
 H 0.00000000 0.00000000 0.00000000
 O 2.95285372 -0.16801368 0.05299085
 H 2.00000000 0.00000000 0.00000000
 H 3.29668606 0.16647549 -0.78894261
