 19
 0.000000
  C -2.684372 0.436041 2.530893
  C -2.677161 -0.901303 1.860875
  C -4.041215 -1.357911 1.397204
  C -1.751545 -1.085401 0.592104
  C -1.119904 0.161734 0.080270
  O -1.630981 -2.159544 0.105237
  H -3.296061 0.359838 3.433727
  H -3.149558 1.209882 1.923868
  H -1.694101 0.741140 2.856444
  H -2.227788 -1.641113 2.535818
  H -4.481910 -0.682298 0.664291
  H -4.715790 -1.355378 2.255347
  H -3.999776 -2.355114 0.967679
  H -1.304444 1.039884 0.682581
  H -1.498499 0.309159 -0.933798
  H -0.047195 -0.030066 0.014355
  O 2.932918 -0.144998 0.037227
  H 1.984174 0.016870 -0.008701
  H 3.313441 0.174973 -0.785756
 19
 1.501520
  C -2.657170 0.433365 2.523050
  C -2.647727 -0.894937 1.861301
  C -3.995790 -1.344856 1.374721
  C -1.697594 -1.085646 0.599194
  C -1.056696 0.160799 0.079182
  O -1.577181 -2.166160 0.131462
  H -3.276116 0.352353 3.417778
  H -3.122756 1.202430 1.916239
  H -1.671429 0.735577 2.859159
  H -2.201712 -1.637093 2.533498
  H -4.425877 -0.661456 0.637920
  H -4.680494 -1.348503 2.223473
  H -3.948251 -2.337754 0.949806
  H -1.254013 1.053486 0.672995
  H -1.423839 0.311210 -0.952350
  H 0.012741 -0.023319 0.032641
  O 2.699204 -0.171932 0.074747
  H 1.752525 -0.000573 0.029614
  H 3.091866 0.162607 -0.762378
 19
 3.266439
  C -2.611255 0.449234 2.514965
  C -2.610108 -0.893011 1.848065
  C -3.967612 -1.340230 1.345166
  C -1.651922 -1.087793 0.597569
  C -1.023229 0.149996 0.092403
  O -1.521956 -2.172596 0.130390
  H -3.226567 0.375383 3.410594
  H -3.074350 1.225112 1.908348
  H -1.625212 0.748378 2.851100
  H -2.166237 -1.647403 2.521671
  H -4.389008 -0.655316 0.620273
  H -4.661105 -1.343475 2.185553
  H -3.927458 -2.336196 0.908112
  H -1.234880 1.046418 0.676842
  H -1.365951 0.281082 -0.931466
  H 0.060852 -0.028257 0.052344
  O 2.499612 -0.171189 0.106703
  H 1.543108 -0.004059 0.056601
  H 2.886020 0.151003 -0.709720
 19
 7.140831
  C -2.572603 0.451936 2.502987
  C -2.587525 -0.906247 1.845726
  C -3.948820 -1.338043 1.330935
  C -1.624766 -1.108340 0.593455
  C -0.991049 0.149250 0.091604
  O -1.493369 -2.194583 0.130312
  H -3.183050 0.394911 3.407878
  H -3.030167 1.230204 1.884613
  H -1.575973 0.747032 2.833951
  H -2.139337 -1.654271 2.520272
  H -4.357415 -0.639571 0.602889
  H -4.650490 -1.335241 2.169415
  H -3.920862 -2.337032 0.891783
  H -1.198731 1.046086 0.671013
  H -1.310426 0.284543 -0.950323
  H 0.103245 -0.024543 0.067023
  O 2.333166 -0.170452 0.148292
  H 1.369303 -0.005003 0.088036
  H 2.726386 0.164133 -0.662359
 19
 13.435076
  C -2.563417 0.452994 2.505717
  C -2.576331 -0.898639 1.842731
  C -3.921206 -1.328347 1.323861
  C -1.602368 -1.095077 0.588530
  C -0.966675 0.150541 0.075373
  O -1.475225 -2.184968 0.136727
  H -3.171583 0.385944 3.400197
  H -3.015886 1.229186 1.897290
  H -1.580033 0.740478 2.838269
  H -2.131708 -1.649735 2.511056
  H -4.325124 -0.632208 0.610274
  H -4.619100 -1.334883 2.155522
  H -3.886427 -2.319005 0.878501
  H -1.165559 1.048065 0.632245
  H -1.272464 0.269830 -0.956856
  H 0.154280 -0.025799 0.068331
  O 2.220525 -0.174000 0.175333
  H 1.244482 -0.010355 0.100641
  H 2.625225 0.148761 -0.639335
 19
 23.344795
  C -2.557325 0.449871 2.498301
  C -2.566128 -0.889683 1.836952
  C -3.913876 -1.320433 1.327166
  C -1.586200 -1.087451 0.574790
  C -0.964240 0.139198 0.068719
  O -1.453975 -2.177310 0.125298
  H -3.166790 0.372631 3.401322
  H -3.016935 1.224379 1.894803
  H -1.569488 0.740983 2.830417
  H -2.127282 -1.648175 2.501632
  H -4.325224 -0.620252 0.611300
  H -4.607996 -1.325836 2.165379
  H -3.881466 -2.307852 0.883791
  H -1.169702 1.038310 0.622752
  H -1.273277 0.264600 -0.970465
  H 0.213967 -0.034896 0.069532
  O 2.195089 -0.174138 0.189655
  H 1.171918 -0.013058 0.104228
  H 2.602200 0.153729 -0.619099
 19
 36.597639
  C -2.542708 0.447905 2.491767
  C -2.552560 -0.889262 1.830580
  C -3.906483 -1.316076 1.320677
  C -1.578461 -1.093215 0.573566
  C -0.970802 0.133352 0.069984
  O -1.451682 -2.187953 0.131392
  H -3.153733 0.370376 3.402199
  H -3.005259 1.222088 1.886606
  H -1.546980 0.744666 2.820675
  H -2.119369 -1.647633 2.500373
  H -4.317518 -0.608953 0.593081
  H -4.605608 -1.317451 2.162644
  H -3.879234 -2.306910 0.880888
  H -1.185150 1.033226 0.629428
  H -1.274455 0.267778 -0.973218
  H 0.261569 -0.036543 0.073774
  O 2.175689 -0.172940 0.198455
  H 1.104975 -0.011404 0.106293
  H 2.578170 0.162299 -0.607611
 19
 55.103160
  C -2.554779 0.449356 2.496592
  C -2.562889 -0.889412 1.830601
  C -3.918995 -1.319650 1.328332
  C -1.591164 -1.086187 0.567604
  C -0.996716 0.142803 0.062547
  O -1.460727 -2.180534 0.123327
  H -3.156500 0.365895 3.408542
  H -3.026034 1.223872 1.896850
  H -1.560534 0.749722 2.817697
  H -2.124007 -1.646221 2.495931
  H -4.334280 -0.616563 0.607552
  H -4.611170 -1.325112 2.172128
  H -3.891374 -2.309655 0.887262
  H -1.206082 1.040992 0.621445
  H -1.297936 0.270661 -0.982545
  H 0.334253 -0.034664 0.063747
  O 2.260901 -0.177291 0.191398
  H 1.094559 -0.006561 0.091430
  H 2.660473 0.156252 -0.616280
 19
 78.302217
  C -2.572344 0.451131 2.501129
  C -2.580693 -0.890926 1.830668
  C -3.940898 -1.328285 1.340819
  C -1.619643 -1.080268 0.561999
  C -1.040618 0.155606 0.054052
  O -1.485658 -2.175401 0.116684
  H -3.160090 0.362935 3.416179
  H -3.055214 1.225019 1.908487
  H -1.576603 0.756829 2.811070
  H -2.131682 -1.644602 2.489489
  H -4.367763 -0.624129 0.623730
  H -4.625571 -1.340801 2.192538
  H -3.911818 -2.321279 0.895430
  H -1.242125 1.055953 0.617186
  H -1.336004 0.277542 -0.984855
  H 0.416931 -0.031557 0.047817
  O 2.402314 -0.181454 0.178450
  H 1.110294 0.001465 0.070183
  H 2.795899 0.151128 -0.631689
 19
 103.305105
  C -2.612963 0.448679 2.504980
  C -2.615612 -0.889321 1.832065
  C -3.976983 -1.341632 1.369646
  C -1.662965 -1.061319 0.552172
  C -1.116816 0.179910 0.044405
  O -1.524107 -2.156334 0.101171
  H -3.189916 0.347989 3.431084
  H -3.115899 1.213490 1.924060
  H -1.616522 0.768730 2.794701
  H -2.148360 -1.644567 2.483366
  H -4.423459 -0.644521 0.664224
  H -4.643364 -1.366050 2.233561
  H -3.942047 -2.329639 0.922153
  H -1.282083 1.078855 0.611215
  H -1.400529 0.302293 -1.000154
  H 0.522733 -0.029964 0.020378
  O 2.639721 -0.196508 0.155041
  H 1.177642 0.010327 0.036701
  H 3.026158 0.137656 -0.662287
 19
 120.338179
  C -2.699080 0.458635 2.524218
  C -2.687363 -0.879865 1.843267
  C -4.048554 -1.376217 1.410620
  C -1.730906 -1.038760 0.536773
  C -1.262363 0.212978 0.057267
  O -1.600078 -2.137314 0.087572
  H -3.255262 0.344874 3.453663
  H -3.229626 1.215597 1.950786
  H -1.704310 0.802585 2.789129
  H -2.185833 -1.631283 2.465196
  H -4.545013 -0.685029 0.729807
  H -4.690151 -1.434576 2.295335
  H -3.995306 -2.368697 0.957088
  H -1.338947 1.118594 0.644128
  H -1.516356 0.356300 -0.996898
  H 0.690652 -0.055335 -0.046367
  O 3.080715 -0.225259 0.079612
  H 1.366420 0.025839 -0.042022
  H 3.450706 0.123870 -0.731562
 19
 127.336285
  C -2.841165 0.477342 2.554258
  C -2.791178 -0.858429 1.880997
  C -4.115608 -1.355400 1.414021
  C -1.744994 -1.099918 0.531160
  C -1.382969 0.162546 0.148620
  O -1.685446 -2.214335 0.149327
  H -3.415373 0.335271 3.482058
  H -3.372674 1.228413 1.975241
  H -1.862661 0.836931 2.857727
  H -2.273815 -1.599946 2.506916
  H -4.591379 -0.672956 0.715214
  H -4.779983 -1.415847 2.277154
  H -4.050763 -2.338910 0.971824
  H -1.350181 1.023957 0.792522
  H -1.667641 0.376254 -0.880555
  H 0.912741 -0.125794 -0.146857
  O 3.585749 -0.215398 -0.132654
  H 1.612695 0.014467 -0.164944
  H 3.897620 0.256447 -0.916013
 19
 131.008120
  C -2.912170 0.476773 2.584512
  C -2.853124 -0.853828 1.916779
  C -4.170635 -1.341152 1.433886
  C -1.782812 -1.135281 0.500811
  C -1.477088 0.139920 0.167511
  O -1.748938 -2.258187 0.150220
  H -3.494226 0.325914 3.497940
  H -3.444253 1.226502 2.003539
  H -1.939244 0.845821 2.908650
  H -2.344715 -1.589952 2.552830
  H -4.637474 -0.658310 0.729791
  H -4.842273 -1.380973 2.296096
  H -4.121236 -2.336841 1.006995
  H -1.418760 0.981267 0.836739
  H -1.800272 0.386485 -0.846370
  H 1.075886 -0.129972 -0.223729
  O 3.924661 -0.187172 -0.231495
  H 1.758899 0.045192 -0.242538
  H 4.228725 0.315078 -0.991857
 19
 131.520442
  C -3.026497 0.495693 2.617348
  C -2.931925 -0.837338 1.955256
  C -4.227023 -1.341545 1.424450
  C -1.798019 -1.151188 0.535530
  C -1.523808 0.131216 0.257166
  O -1.785914 -2.273026 0.205132
  H -3.628165 0.335188 3.515723
  H -3.554931 1.236648 2.024170
  H -2.069814 0.879161 2.965897
  H -2.449666 -1.565060 2.611318
  H -4.683828 -0.663409 0.706719
  H -4.923536 -1.385206 2.265075
  H -4.155396 -2.340875 1.005128
  H -1.421389 0.943802 0.952147
  H -1.907361 0.424533 -0.724531
  H 1.239677 -0.151786 -0.304864
  O 4.253429 -0.182901 -0.412290
  H 1.915010 0.052116 -0.322538
  H 4.538730 0.378057 -1.143416
