 22
 0.000000
  C 0.999445 0.157291 0.442108
  C 2.470865 0.137954 0.393837
  C 3.249696 0.602943 1.551550
  H 2.618258 0.931157 2.369327
  C 3.065543 -0.331302 -0.774761
  C 4.446651 -0.419437 -0.994865
  C 5.098542 -0.870341 -2.118615
  C 4.628370 -1.388172 -3.409168
  C 3.145821 -1.512411 -3.718945
  H 3.024281 -1.914407 -4.720950
  H 6.180724 -0.850131 -2.068463
  H 0.619816 0.536274 1.385793
  H 0.603937 -0.846618 0.279579
  H 0.603790 0.769942 -0.369559
  H 3.907002 1.423610 1.259152
  H 3.907248 -0.191836 1.907863
  H 2.395389 -0.645748 -1.557474
  H 5.084875 -0.093813 -0.183705
  H 5.104820 -2.370209 -3.534899
  H 5.105020 -0.765592 -4.178868
  H 2.654704 -0.542989 -3.688069
  H 2.654696 -2.191736 -3.026612
 22
 0.211587
  C 1.005366 0.209967 0.422906
  C 2.474750 0.186512 0.349622
  C 3.252809 0.444019 1.572375
  H 2.647836 0.927466 2.332296
  C 3.059387 -0.115630 -0.876545
  C 4.442076 -0.187942 -1.100281
  C 5.102463 -0.708875 -2.186720
  C 4.634550 -1.394782 -3.394525
  C 3.154798 -1.641148 -3.634087
  H 3.034430 -2.227342 -4.543434
  H 6.183898 -0.632205 -2.149755
  H 0.643537 0.341990 1.433324
  H 0.579875 -0.699272 -0.001295
  H 0.622263 1.024895 -0.197719
  H 4.143424 1.037827 1.380200
  H 3.597141 -0.508360 1.984819
  H 2.386852 -0.323194 -1.695057
  H 5.080769 0.186829 -0.309171
  H 5.172423 -2.351906 -3.431550
  H 5.055912 -0.841814 -4.246728
  H 2.614794 -0.708309 -3.773285
  H 2.712558 -2.203150 -2.815249
 22
 2.051047
  C 1.010749 0.241652 0.331918
  C 2.486006 0.226961 0.247258
  C 3.254758 0.177558 1.499796
  H 2.710937 0.666013 2.306607
  C 3.064884 0.198552 -1.015562
  C 4.451281 0.106944 -1.243586
  C 5.126144 -0.546078 -2.236534
  C 4.636552 -1.450325 -3.286175
  C 3.147588 -1.738970 -3.394549
  H 2.984846 -2.533293 -4.122388
  H 6.204354 -0.448600 -2.225861
  H 0.654213 0.106630 1.349823
  H 0.570209 -0.519759 -0.312670
  H 0.637666 1.196210 -0.047527
  H 4.248834 0.603749 1.409031
  H 3.377669 -0.866164 1.798126
  H 2.397565 0.221891 -1.865604
  H 5.082211 0.527810 -0.467625
  H 5.190119 -2.392989 -3.174424
  H 5.004847 -1.050318 -4.240896
  H 2.597185 -0.863915 -3.733559
  H 2.745286 -2.069513 -2.437382
 22
 8.242344
  C 1.070635 0.064321 0.160671
  C 2.548121 0.166436 0.147074
  C 3.248007 0.121875 1.437398
  H 2.635424 0.585949 2.208814
  C 3.148073 0.439001 -1.065678
  C 4.541889 0.215597 -1.285699
  C 5.158505 -0.580399 -2.188872
  C 4.565431 -1.527963 -3.149543
  C 3.054390 -1.665499 -3.182597
  H 2.778217 -2.472295 -3.861083
  H 6.244732 -0.567029 -2.206799
  H 0.688871 -0.182347 1.146432
  H 0.717029 -0.682654 -0.554859
  H 0.646145 1.016497 -0.164543
  H 4.224777 0.589464 1.402557
  H 3.387991 -0.916065 1.750246
  H 2.522160 0.690296 -1.909183
  H 5.195270 0.728034 -0.581374
  H 5.026842 -2.505824 -2.977112
  H 4.924200 -1.216618 -4.143017
  H 2.577612 -0.758724 -3.537739
  H 2.672206 -1.914908 -2.194011
 22
 24.193363
  C 1.163011 0.037055 -0.117233
  C 2.665678 0.136788 -0.011711
  C 3.188117 -0.061204 1.340663
  H 2.443638 0.237607 2.076845
  C 3.235350 0.760835 -1.104369
  C 4.599483 0.349998 -1.386549
  C 5.164153 -0.518823 -2.215181
  C 4.491442 -1.584615 -3.022366
  C 3.001866 -1.747117 -2.795561
  H 2.621284 -2.547114 -3.430492
  H 6.246832 -0.534712 -2.280487
  H 0.731342 -0.385197 0.787838
  H 0.863564 -0.583301 -0.961930
  H 0.765382 1.027176 -0.286566
  H 4.106506 0.490904 1.502265
  H 3.411054 -1.117308 1.525692
  H 2.690891 1.396533 -1.782610
  H 5.271982 1.010823 -0.830676
  H 5.007304 -2.536537 -2.847026
  H 4.681698 -1.333274 -4.071663
  H 2.463713 -0.836502 -3.042010
  H 2.806380 -2.023808 -1.768319
 22
 58.037419
  C 1.332882 0.001825 -0.147480
  C 2.973291 0.147514 0.051647
  C 3.116000 -0.015912 1.501284
  H 2.206118 0.192362 2.036436
  C 3.224101 0.814734 -1.087268
  C 4.600417 0.369329 -1.404229
  C 5.115010 -0.557122 -2.213207
  C 4.447389 -1.600062 -3.034452
  C 2.947995 -1.754702 -2.877634
  H 2.610116 -2.609192 -3.459859
  H 6.191214 -0.534168 -2.351701
  H 0.871304 -0.354005 0.753484
  H 1.127986 -0.694347 -0.952288
  H 0.970518 0.990617 -0.392853
  H 3.896872 0.648154 1.877340
  H 3.421103 -1.036207 1.742539
  H 2.587866 1.321597 -1.786716
  H 5.297326 1.080121 -0.954557
  H 4.932082 -2.560465 -2.825223
  H 4.701415 -1.379371 -4.079084
  H 2.422251 -0.874753 -3.237225
  H 2.692009 -1.940011 -1.836392
 22
 88.179136
  C 1.092178 0.133027 -0.238181
  C 3.149419 0.258706 -0.125656
  C 3.248538 -0.257800 1.226697
  H 2.311576 -0.270717 1.760805
  C 3.152147 0.961217 -1.219605
  C 4.595976 0.535839 -1.367709
  C 5.102821 -0.451828 -2.135366
  C 4.455026 -1.583145 -2.839497
  C 2.972267 -1.825816 -2.609643
  H 2.665542 -2.708645 -3.165478
  H 6.177707 -0.425681 -2.277301
  H 0.766963 -0.340778 0.672052
  H 0.954997 -0.457675 -1.121597
  H 0.872881 1.181094 -0.317371
  H 3.948428 0.366296 1.791280
  H 3.646559 -1.274116 1.215643
  H 2.557219 1.503704 -1.909239
  H 5.292807 1.246844 -0.944231
  H 5.019206 -2.488932 -2.587395
  H 4.641270 -1.429939 -3.908176
  H 2.380157 -0.988459 -2.960604
  H 2.766084 -2.004299 -1.560177
 22
 94.552497
  C 0.702679 0.021334 -0.176103
  C 3.299726 0.291282 -0.193470
  C 3.494792 -0.238374 1.125006
  H 2.546467 -0.378720 1.633408
  C 3.142475 0.972868 -1.255151
  C 4.623911 0.566739 -1.310068
  C 5.130877 -0.426564 -2.089143
  C 4.483908 -1.546410 -2.788726
  C 2.992289 -1.780732 -2.595518
  H 2.699341 -2.669945 -3.148598
  H 6.204900 -0.394737 -2.237151
  H 0.535995 -0.443265 0.773317
  H 0.624859 -0.589163 -1.050919
  H 0.525994 1.072711 -0.257846
  H 4.097340 0.460235 1.708458
  H 4.014367 -1.195199 1.087711
  H 2.529930 1.438316 -1.986057
  H 5.318282 1.292034 -0.905449
  H 5.037454 -2.452275 -2.515825
  H 4.700572 -1.409389 -3.855536
  H 2.409272 -0.946957 -2.973370
  H 2.750106 -1.941809 -1.549698
 22
 94.667900
  C 0.330060 0.062119 -0.212986
  C 3.438387 0.270522 -0.206805
  C 3.686440 -0.312387 1.076708
  H 2.732526 -0.549159 1.547487
  C 3.158346 0.985339 -1.211893
  C 4.675152 0.612879 -1.310303
  C 5.163118 -0.365353 -2.121928
  C 4.519012 -1.520336 -2.752683
  C 3.048940 -1.812727 -2.482580
  H 2.767786 -2.718723 -3.013292
  H 6.219670 -0.285133 -2.357161
  H 0.305378 -0.447962 0.725784
  H 0.248010 -0.505758 -1.113887
  H 0.182147 1.119847 -0.232982
  H 4.220435 0.395155 1.710170
  H 4.274426 -1.223688 0.991283
  H 2.547146 1.417956 -1.962297
  H 5.359598 1.377986 -0.967626
  H 5.124847 -2.397328 -2.494669
  H 4.677389 -1.400963 -3.832077
  H 2.411880 -1.008930 -2.837807
  H 2.856577 -1.971929 -1.426355
 22
 96.921171
  C 0.490106 0.097566 -0.477037
  C 3.387546 0.191171 -0.127196
  C 3.797131 -0.350658 1.143167
  H 2.931982 -0.732556 1.685043
  C 2.894706 0.898252 -1.051469
  C 4.508120 0.630340 -1.212587
  C 5.038391 -0.252422 -2.100767
  C 4.486784 -1.453817 -2.740319
  C 3.080269 -1.916337 -2.383769
  H 2.865769 -2.838298 -2.919827
  H 6.057781 -0.039150 -2.406443
  H 0.492725 -0.456314 0.435651
  H 0.385782 -0.436998 -1.396980
  H 0.230280 1.134088 -0.440573
  H 4.259098 0.436886 1.738186
  H 4.514593 -1.156284 1.006451
  H 2.413518 1.341108 -1.882802
  H 5.126448 1.455857 -0.886878
  H 5.202311 -2.264184 -2.555420
  H 4.551582 -1.282300 -3.822229
  H 2.337699 -1.180912 -2.678542
  H 2.973717 -2.115378 -1.321967
 22
 81.915883
  C 0.929194 0.238075 -0.580375
  C 3.311733 0.131994 -0.127426
  C 3.733197 -0.344238 1.179044
  H 2.907469 -0.793153 1.733706
  C 2.572259 0.858262 -0.928195
  C 4.462954 0.502323 -1.104265
  C 5.003613 -0.288481 -2.049721
  C 4.478403 -1.459662 -2.787816
  C 3.088384 -1.964209 -2.439977
  H 2.874870 -2.852862 -3.025768
  H 6.011424 -0.021202 -2.352151
  H 0.924420 -0.347319 0.321716
  H 0.661641 -0.318925 -1.467829
  H 0.363216 1.161514 -0.505042
  H 4.103172 0.502681 1.752226
  H 4.526402 -1.077465 1.073256
  H 1.954651 1.321244 -1.656838
  H 5.039559 1.346378 -0.751654
  H 5.209090 -2.267142 -2.661665
  H 4.519619 -1.214273 -3.856457
  H 2.338577 -1.220947 -2.682334
  H 3.010147 -2.226529 -1.390519
 22
 40.156536
  C 0.947751 0.309560 -0.454016
  C 3.339976 0.154859 -0.246648
  C 3.651929 -0.427636 1.066802
  H 2.801215 -0.953358 1.504653
  C 2.340412 0.878776 -0.791805
  C 4.521033 0.457706 -1.105623
  C 5.099306 -0.309025 -2.028255
  C 4.561649 -1.483715 -2.756044
  C 3.119647 -1.874627 -2.461456
  H 2.876101 -2.785007 -3.005402
  H 6.100093 -0.027304 -2.351442
  H 0.957058 -0.328132 0.427769
  H 0.543646 -0.213879 -1.308524
  H 0.327513 1.195202 -0.284702
  H 3.918904 0.377950 1.753246
  H 4.492976 -1.105203 0.983100
  H 2.059769 1.167345 -1.786664
  H 5.038998 1.351413 -0.791759
  H 5.238014 -2.325497 -2.557042
  H 4.672753 -1.288745 -3.827390
  H 2.437876 -1.102535 -2.791448
  H 2.964396 -2.064124 -1.402859
 22
 13.807861
  C 0.872919 0.479809 -0.329514
  C 3.376332 0.191945 -0.380739
  C 3.543248 -0.552234 0.879281
  H 2.648605 -1.099861 1.165827
  C 2.220699 0.817027 -0.790156
  C 4.581482 0.439232 -1.170853
  C 5.139988 -0.274760 -2.139713
  C 4.584452 -1.493700 -2.802615
  C 3.271090 -2.019301 -2.254190
  H 2.984557 -2.920456 -2.794203
  H 6.096092 0.035489 -2.528086
  H 0.857607 -0.201162 0.514997
  H 0.289330 0.059029 -1.153441
  H 0.348993 1.403613 -0.073167
  H 3.738191 0.166431 1.678883
  H 4.398418 -1.226056 0.828316
  H 2.247290 1.426489 -1.684404
  H 5.076933 1.362358 -0.872778
  H 5.353502 -2.270099 -2.726329
  H 4.483517 -1.273574 -3.872165
  H 2.474437 -1.287820 -2.395100
  H 3.352748 -2.271697 -1.203644
 22
 9.394095
  C 0.922073 0.404396 -0.284293
  C 3.438747 0.117792 -0.319714
  C 3.553725 -0.337041 1.087866
  H 2.708006 -0.962933 1.361596
  C 2.249335 0.539568 -0.873236
  C 4.678036 0.278250 -1.042133
  C 5.123071 -0.308550 -2.165763
  C 4.507094 -1.409579 -2.945011
  C 3.170774 -1.954154 -2.471441
  H 2.909172 -2.833175 -3.056551
  H 6.091728 -0.004682 -2.540100
  H 0.923991 -0.016731 0.714798
  H 0.313602 -0.228327 -0.938495
  H 0.403835 1.365624 -0.287867
  H 3.542822 0.518469 1.766275
  H 4.480809 -0.879594 1.248489
  H 2.289041 1.017002 -1.844119
  H 5.372736 0.937097 -0.526006
  H 5.243023 -2.220008 -2.985765
  H 4.416666 -1.052339 -3.977822
  H 2.377256 -1.225937 -2.597315
  H 3.224888 -2.254445 -1.427185
 22
 6.800431
  C 0.976192 0.391291 -0.315290
  C 3.492249 0.066581 -0.216631
  C 3.522965 -0.136135 1.258575
  H 2.702883 -0.779882 1.569201
  C 2.325460 0.385638 -0.879439
  C 4.739434 0.062288 -0.903184
  C 5.067868 -0.328956 -2.165107
  C 4.394562 -1.273192 -3.072119
  C 3.157225 -2.011818 -2.589466
  H 2.952439 -2.840615 -3.262175
  H 6.038008 -0.014813 -2.526845
  H 0.946426 0.206137 0.752086
  H 0.380253 -0.376318 -0.818518
  H 0.469169 1.326084 -0.555375
  H 3.400396 0.813847 1.778237
  H 4.462771 -0.580356 1.575733
  H 2.412013 0.702708 -1.912380
  H 5.562406 0.426511 -0.293969
  H 5.159239 -2.008300 -3.354096
  H 4.182305 -0.739814 -4.007603
  H 2.277882 -1.379445 -2.573421
  H 3.318284 -2.420741 -1.592007
