 12
 0.000000
  C 0.898168 0.051466 0.223608
  C 2.387877 0.061182 0.051398
  H 2.972307 0.009956 0.959269
  C 3.012446 0.126919 -1.113579
  C 2.366780 0.202770 -2.457813
  H 1.284577 0.199945 -2.407747
  H 4.094621 0.128969 -1.149886
  H 0.627892 -0.007848 1.274711
  H 0.455988 -0.803342 -0.287196
  H 0.455990 0.958314 -0.187788
  H 2.693909 -0.639522 -3.069255
  H 2.693907 1.108498 -2.970615
 12
 -0.062035
  C 0.888748 0.035164 0.222713
  C 2.376560 0.049500 0.039177
  H 2.960722 -0.035895 0.945478
  C 3.007530 0.141989 -1.120848
  C 2.367730 0.250019 -2.466459
  H 1.286615 0.311373 -2.397282
  H 4.090129 0.136823 -1.137696
  H 0.632328 0.142685 1.273061
  H 0.468011 -0.904404 -0.135598
  H 0.416712 0.845992 -0.329611
  H 2.628945 -0.619148 -3.070670
  H 2.740280 1.132463 -2.987539
 12
 -0.089030
  C 0.886398 0.012408 0.229710
  C 2.371180 0.029020 0.030963
  H 2.957413 -0.091058 0.932498
  C 3.002620 0.143198 -1.127015
  C 2.373728 0.291360 -2.473956
  H 1.296555 0.408673 -2.409728
  H 4.085282 0.126301 -1.139055
  H 0.638217 0.292690 1.250030
  H 0.491035 -0.986469 0.043075
  H 0.385865 0.703504 -0.444593
  H 2.588959 -0.589003 -3.080114
  H 2.793589 1.154990 -2.989597
 12
 0.038208
  C 0.895453 -0.024037 0.233232
  C 2.376626 -0.022398 0.012251
  H 2.962744 -0.205974 0.904285
  C 3.006464 0.094204 -1.146953
  C 2.391195 0.316610 -2.490876
  H 1.324600 0.508615 -2.425772
  H 4.087403 0.030140 -1.160137
  H 0.675452 0.455722 1.185435
  H 0.516718 -1.044109 0.232386
  H 0.374510 0.533186 -0.542386
  H 2.544391 -0.561063 -3.117836
  H 2.871280 1.162089 -2.983982
 12
 2.296926
  C 0.864904 -0.052555 0.257365
  C 2.339249 0.057274 0.041270
  H 2.937841 -0.152857 0.924052
  C 2.972740 0.152777 -1.123835
  C 2.384141 0.371728 -2.479863
  H 1.338214 0.660475 -2.425645
  H 4.053623 0.047250 -1.119012
  H 0.623515 0.507374 1.159256
  H 0.580553 -1.099890 0.271068
  H 0.312366 0.425224 -0.554186
  H 2.431002 -0.557060 -3.047234
  H 2.946165 1.136011 -3.018740
 12
 10.761343
  C 0.841020 -0.046151 0.211897
  C 2.350346 0.091650 0.059408
  H 2.912557 -0.119287 0.955927
  C 2.986355 0.143858 -1.101334
  C 2.359184 0.326552 -2.447762
  H 1.307170 0.589529 -2.383618
  H 4.064093 0.000692 -1.151148
  H 0.774179 0.468280 1.151328
  H 0.631949 -1.098890 0.051097
  H 0.309321 0.560715 -0.523033
  H 2.495133 -0.574014 -3.032981
  H 2.859996 1.143626 -2.971973
 12
 26.548728
  C 0.826743 -0.089439 0.214091
  C 2.372572 0.098245 0.102521
  H 2.955773 -0.133273 0.971838
  C 2.996992 0.123872 -1.081829
  C 2.306208 0.278145 -2.409433
  H 1.258627 0.555623 -2.314507
  H 4.065441 0.073416 -1.196144
  H 0.903078 0.497226 1.095682
  H 0.603023 -1.110831 -0.028268
  H 0.395121 0.577000 -0.518151
  H 2.454307 -0.589514 -3.049518
  H 2.799619 1.116282 -2.911379
 12
 45.657992
  C 0.811627 -0.131010 0.218226
  C 2.374799 0.057696 0.108242
  H 2.879122 -0.064348 1.058907
  C 2.969721 0.063025 -1.058503
  C 2.310711 0.378040 -2.375811
  H 1.276981 0.676666 -2.301512
  H 4.039457 -0.056708 -1.187674
  H 0.994904 0.651775 0.901799
  H 0.732289 -1.194381 0.101031
  H 0.371964 0.391324 -0.655521
  H 2.297110 -0.508223 -3.023856
  H 2.883516 1.132474 -2.905559
 12
 73.496483
  C 0.659807 -0.147056 0.280145
  C 2.347068 0.132753 0.083676
  H 2.832214 -0.065612 1.014775
  C 2.971536 0.058186 -1.070533
  C 2.384808 0.393745 -2.426708
  H 1.375310 0.800276 -2.278736
  H 4.062314 -0.119750 -1.064445
  H 1.091863 0.666222 0.798140
  H 0.840142 -1.201034 0.106215
  H 0.158481 0.322169 -0.578005
  H 2.224875 -0.521647 -2.992288
  H 3.018897 1.075731 -2.992879
 12
 92.605565
  C 0.565149 -0.100744 0.270005
  C 2.404556 0.119606 0.142144
  H 2.900156 -0.162157 1.068896
  C 3.026012 0.099334 -1.036297
  C 2.371725 0.324170 -2.388307
  H 1.313204 0.623710 -2.285176
  H 4.097455 -0.155471 -1.074715
  H 1.220509 0.646614 0.743436
  H 0.696410 -1.073489 -0.174273
  H 0.088632 0.558558 -0.489457
  H 2.432143 -0.604262 -2.963331
  H 2.901852 1.106212 -2.944621
 12
 103.537983
  C 0.492134 -0.095302 0.281868
  C 2.443214 0.201789 0.145502
  H 2.944089 0.029345 1.084468
  C 3.035294 0.077463 -1.024777
  C 2.390016 0.270535 -2.355969
  H 1.381813 0.665495 -2.256191
  H 4.090632 -0.183140 -1.061866
  H 1.346930 0.643605 0.511510
  H 0.667165 -1.052440 -0.193537
  H -0.011679 0.536000 -0.480363
  H 2.339255 -0.683317 -2.881479
  H 2.982759 0.950345 -2.966444
 12
 106.926464
  C 0.457385 -0.149388 0.310907
  C 2.476467 0.196828 0.154716
  H 2.971419 0.004008 1.091299
  C 3.056827 0.063312 -1.022250
  C 2.406681 0.275546 -2.345133
  H 1.407785 0.691370 -2.234830
  H 4.101623 -0.225113 -1.061981
  H 1.415439 0.606987 0.398828
  H 0.603071 -1.036617 -0.310317
  H -0.109685 0.555578 -0.342138
  H 2.330620 -0.674687 -2.874991
  H 3.008591 0.945507 -2.957206
 12
 108.394934
  C 0.479893 -0.191213 0.335202
  C 2.446876 0.277647 0.161082
  H 2.923293 0.142051 1.115327
  C 3.051337 0.087363 -0.999887
  C 2.416802 0.220354 -2.340172
  H 1.413920 0.634335 -2.266257
  H 4.097813 -0.195547 -1.006136
  H 1.410426 0.708259 0.263725
  H 0.621292 -1.011247 -0.382388
  H -0.202471 0.511559 -0.197340
  H 2.353169 -0.758306 -2.817556
  H 3.021579 0.859549 -2.982404
 12
 75.402126
  C 0.802399 -0.094416 0.286770
  C 2.316861 0.202730 0.158364
  H 2.884211 0.102012 1.082138
  C 2.995083 0.069060 -0.982128
  C 2.491468 0.153449 -2.389666
  H 1.475096 0.543889 -2.424871
  H 4.051655 -0.143026 -0.890936
  H 1.014164 0.930054 -0.282353
  H 0.583589 -0.875582 -0.453219
  H -0.121636 0.424940 0.495935
  H 2.495586 -0.833110 -2.853706
  H 3.142580 0.795062 -2.975011
 12
 -0.019666
  C 0.778602 0.200570 0.057922
  C 2.271655 0.072553 0.075079
  H 2.727808 0.011638 1.054354
  C 3.048276 0.031093 -0.997244
  C 2.583957 0.094060 -2.415982
  H 1.542661 0.395121 -2.483493
  H 4.121223 -0.062073 -0.869155
  H 0.480185 1.139142 -0.409965
  H 0.322506 -0.610275 -0.506482
  H 0.379771 0.190847 1.070267
  H 2.692604 -0.884004 -2.886466
  H 3.192917 0.798558 -2.979482
