 26
 0.000000
  C 1.015055 0.111898 0.330358
  C 2.489352 0.126253 0.367562
  C 3.243284 0.602362 1.551537
  C 2.438182 1.086768 2.754371
  C 3.372477 1.536596 3.873875
  C 3.153435 -0.328972 -0.764272
  C 4.532086 -0.392479 -0.923555
  C 5.183523 -0.850292 -2.067842
  C 4.517398 -1.341175 -3.293027
  H 3.437959 -1.314119 -3.224776
  O 6.493783 -0.873028 -2.127450
  H 0.560825 0.478814 1.241938
  H 0.659556 -0.902036 0.140271
  H 0.660329 0.712223 -0.508912
  H 3.904692 1.415888 1.233000
  H 3.903979 -0.205562 1.885420
  H 1.801194 0.284901 3.131664
  H 1.802287 1.927094 2.470959
  H 4.007597 0.717524 4.203886
  H 2.798796 1.881572 4.730534
  H 4.008606 2.355306 3.544934
  H 2.534031 -0.658201 -1.583828
  H 5.165316 -0.066219 -0.110217
  H 4.851443 -2.358955 -3.498422
  H 4.851058 -0.746474 -4.144343
  H 6.936883 -0.550185 -1.322004
 26
 2.082779
  C 0.996078 0.241080 0.293641
  C 2.469149 0.240655 0.329970
  C 3.227347 0.655023 1.534505
  C 2.426554 1.032205 2.782359
  C 3.367113 1.400112 3.929802
  C 3.129504 -0.185303 -0.817341
  C 4.511317 -0.264198 -0.975712
  C 5.173503 -0.823080 -2.067332
  C 4.535002 -1.562402 -3.172322
  H 3.457001 -1.594905 -3.092428
  O 6.489706 -0.821599 -2.116510
  H 0.544874 0.586429 1.214305
  H 0.631455 -0.761279 0.074011
  H 0.648227 0.866098 -0.528792
  H 3.863954 1.505850 1.262803
  H 3.916346 -0.153481 1.801589
  H 1.803019 0.192196 3.097006
  H 1.777457 1.886715 2.574684
  H 4.024540 0.568066 4.177340
  H 2.796204 1.654057 4.821959
  H 3.982297 2.259702 3.669516
  H 2.508654 -0.479083 -1.649481
  H 5.156817 0.139777 -0.207606
  H 4.926528 -2.578511 -3.198316
  H 4.824750 -1.103053 -4.116919
  H 6.934955 -0.093858 -1.640722
 26
 6.787021
  C 0.983553 0.316162 0.262388
  C 2.456273 0.280155 0.313023
  C 3.209752 0.634525 1.537201
  C 2.407731 0.990863 2.785469
  C 3.344041 1.314744 3.945908
  C 3.120820 -0.113710 -0.843691
  C 4.505331 -0.178515 -1.002675
  C 5.171482 -0.788447 -2.057145
  C 4.549263 -1.681518 -3.053040
  H 3.476407 -1.762113 -2.934748
  O 6.498078 -0.718662 -2.120658
  H 0.530634 0.636504 1.192055
  H 0.598546 -0.671199 0.002962
  H 0.657432 0.977513 -0.542205
  H 3.868103 1.478081 1.298219
  H 3.881581 -0.195084 1.784075
  H 1.768559 0.154410 3.073419
  H 1.775411 1.859761 2.595568
  H 3.974608 0.462013 4.187381
  H 2.772073 1.571545 4.834058
  H 3.985552 2.159368 3.704825
  H 2.504322 -0.368007 -1.693981
  H 5.150801 0.244572 -0.246865
  H 4.995577 -2.673713 -2.972142
  H 4.797567 -1.328432 -4.054142
  H 6.878727 0.175506 -2.111989
 26
 10.873125
  C 1.009587 0.298722 0.263362
  C 2.477474 0.245790 0.329408
  C 3.224491 0.617874 1.552610
  C 2.417657 1.011222 2.789804
  C 3.349210 1.308457 3.961364
  C 3.144470 -0.193477 -0.806485
  C 4.523169 -0.249686 -0.959282
  C 5.195023 -0.820625 -2.027260
  C 4.582026 -1.639641 -3.089622
  H 3.505161 -1.702601 -3.010331
  O 6.536576 -0.762505 -2.025558
  H 0.553748 0.663119 1.173375
  H 0.614865 -0.691348 0.037757
  H 0.700265 0.932629 -0.572786
  H 3.898716 1.445886 1.302231
  H 3.884665 -0.215471 1.821549
  H 1.742948 0.201079 3.074153
  H 1.820243 1.901687 2.585665
  H 3.950423 0.436407 4.212456
  H 2.774755 1.586417 4.841684
  H 4.019752 2.131579 3.726177
  H 2.530330 -0.490023 -1.642755
  H 5.163973 0.173537 -0.200219
  H 5.004746 -2.644505 -3.041293
  H 4.868184 -1.253300 -4.069868
  H 6.933704 0.032638 -2.416777
 26
 9.192938
  C 1.008166 0.306805 0.253572
  C 2.478402 0.266021 0.309403
  C 3.227893 0.590305 1.540508
  C 2.423445 0.894224 2.800486
  C 3.355863 1.181064 3.972492
  C 3.151381 -0.121305 -0.844399
  C 4.541352 -0.188674 -0.987817
  C 5.224977 -0.848682 -1.997434
  C 4.629303 -1.764630 -2.988152
  H 3.552991 -1.828247 -2.897392
  O 6.551251 -0.737201 -1.957613
  H 0.551897 0.594650 1.191933
  H 0.619218 -0.667681 -0.044300
  H 0.690516 0.998334 -0.527838
  H 3.880000 1.446194 1.324920
  H 3.910767 -0.237625 1.758226
  H 1.791121 0.043912 3.056220
  H 1.783709 1.765500 2.643073
  H 3.996674 0.325931 4.179905
  H 2.781588 1.395736 4.869573
  H 3.987221 2.040740 3.765339
  H 2.543119 -0.372180 -1.703640
  H 5.189280 0.377423 -0.329451
  H 5.062189 -2.755653 -2.840534
  H 4.892331 -1.469829 -4.002259
  H 6.974030 -0.394840 -2.761694
 26
 15.227944
  C 0.925779 0.465819 0.231772
  C 2.398429 0.430806 0.238766
  C 3.192254 0.654072 1.466575
  C 2.434477 0.841505 2.775920
  C 3.407785 1.053951 3.930910
  C 3.041556 0.162510 -0.952000
  C 4.423858 0.114532 -1.115761
  C 5.159659 -0.665884 -1.978002
  C 4.711311 -1.885127 -2.665278
  H 3.656737 -2.065011 -2.490522
  O 6.457635 -0.341639 -1.977098
  H 0.499844 0.626280 1.213993
  H 0.529937 -0.465073 -0.175071
  H 0.581754 1.252580 -0.441760
  H 3.821297 1.535739 1.293794
  H 3.895974 -0.175435 1.587397
  H 1.825902 -0.039235 2.987579
  H 1.775123 1.708433 2.712413
  H 4.069623 0.198634 4.044614
  H 2.866084 1.186108 4.864034
  H 4.017448 1.939943 3.767902
  H 2.434629 0.042596 -1.838904
  H 5.122782 0.831103 -0.695294
  H 5.292765 -2.731677 -2.301864
  H 4.891510 -1.821028 -3.738772
  H 6.855138 -0.203842 -2.851228
 26
 28.994905
  C 0.830263 0.600656 0.260703
  C 2.301722 0.524003 0.193283
  C 3.165647 0.654674 1.389956
  C 2.477021 0.769607 2.747094
  C 3.511128 0.880250 3.864010
  C 2.878516 0.284105 -1.038430
  C 4.256860 0.182190 -1.262650
  C 5.084837 -0.646026 -1.980397
  C 4.899239 -2.031948 -2.438267
  H 3.881404 -2.362006 -2.255464
  O 6.329163 -0.094727 -1.992821
  H 0.458699 0.754490 1.265777
  H 0.387092 -0.311415 -0.140289
  H 0.477474 1.411314 -0.378663
  H 3.808573 1.531740 1.244205
  H 3.845633 -0.203190 1.419407
  H 1.856959 -0.110062 2.929918
  H 1.839179 1.655270 2.774489
  H 4.153697 0.002914 3.888231
  H 3.017633 0.962374 4.829538
  H 4.135983 1.760780 3.731532
  H 2.230102 0.215341 -1.902959
  H 5.063498 0.895000 -0.991978
  H 5.597403 -2.684474 -1.914983
  H 5.114837 -2.119676 -3.503811
  H 6.694452 0.120576 -2.866208
 26
 52.872290
  C 0.757254 0.673699 0.320226
  C 2.219518 0.518362 0.198216
  C 3.135163 0.607135 1.360868
  C 2.506055 0.757502 2.743155
  C 3.587743 0.818554 3.817589
  C 2.741380 0.255354 -1.056545
  C 4.091879 0.087885 -1.331673
  C 5.008470 -0.668016 -1.968409
  C 5.073272 -2.073369 -2.404703
  H 4.111430 -2.555890 -2.260620
  O 6.186680 0.079302 -1.944872
  H 0.434426 0.835850 1.341388
  H 0.249480 -0.208684 -0.070971
  H 0.424175 1.512549 -0.293078
  H 3.809716 1.455006 1.196725
  H 3.772435 -0.283116 1.362657
  H 1.849726 -0.089159 2.952345
  H 1.913283 1.672463 2.793298
  H 4.186869 -0.089160 3.817422
  H 3.139086 0.924872 4.802260
  H 4.248327 1.667167 3.655609
  H 2.061635 0.258409 -1.901590
  H 5.100423 0.864941 -1.191323
  H 5.834561 -2.605794 -1.836848
  H 5.339588 -2.131592 -3.459823
  H 6.553491 0.340791 -2.809259
 26
 65.766060
  C 0.723323 0.717500 0.337175
  C 2.182754 0.513353 0.188290
  C 3.125887 0.575743 1.339434
  C 2.524239 0.746149 2.731458
  C 3.624820 0.773459 3.787854
  C 2.674353 0.232583 -1.072633
  C 3.996503 0.023921 -1.375842
  C 4.948483 -0.674366 -1.955011
  C 5.138061 -2.083291 -2.352904
  H 4.213609 -2.635261 -2.216996
  O 6.118890 0.184866 -1.925908
  H 0.425839 0.891129 1.363966
  H 0.180125 -0.149061 -0.041740
  H 0.405095 1.567277 -0.269011
  H 3.823309 1.402369 1.167210
  H 3.732808 -0.335505 1.331187
  H 1.844874 -0.079418 2.951727
  H 1.961897 1.679163 2.790249
  H 4.194563 -0.152794 3.778179
  H 3.195954 0.894249 4.780035
  H 4.308848 1.600905 3.613831
  H 1.980131 0.265384 -1.906592
  H 5.263316 0.882208 -1.311104
  H 5.922583 -2.540022 -1.751869
  H 5.432308 -2.146972 -3.399569
  H 6.472899 0.449608 -2.801905
 26
 56.375824
  C 0.711028 0.761589 0.350056
  C 2.166448 0.515646 0.186725
  C 3.126212 0.551407 1.330194
  C 2.541261 0.738972 2.726977
  C 3.649350 0.732647 3.775815
  C 2.640144 0.217347 -1.081267
  C 3.941455 -0.022315 -1.401145
  C 4.926030 -0.679237 -1.937430
  C 5.199026 -2.085156 -2.297207
  H 4.304081 -2.681261 -2.154156
  O 6.121400 0.240729 -1.947637
  H 0.430386 0.947153 1.379651
  H 0.139412 -0.091768 -0.017791
  H 0.408020 1.618508 -0.254193
  H 3.845669 1.358462 1.152824
  H 3.706593 -0.377793 1.317507
  H 1.838785 -0.066131 2.951530
  H 2.007105 1.688929 2.789772
  H 4.190946 -0.210547 3.761137
  H 3.231063 0.865308 4.770935
  H 4.356389 1.539588 3.597229
  H 1.937771 0.264231 -1.907161
  H 5.507241 0.920109 -1.476179
  H 5.999807 -2.483991 -1.676505
  H 5.504762 -2.159378 -3.339383
  H 6.469207 0.448329 -2.844241
 26
 46.975729
  C 0.658082 0.818941 0.357161
  C 2.102118 0.527363 0.173815
  C 3.080396 0.524078 1.301359
  C 2.518375 0.708984 2.707904
  C 3.637856 0.661399 3.743345
  C 2.548754 0.223068 -1.104272
  C 3.825647 -0.065211 -1.450874
  C 4.869928 -0.636589 -1.919678
  C 5.232990 -2.048739 -2.162334
  H 4.377991 -2.686018 -1.966635
  O 6.086672 0.255741 -2.040805
  H 0.398257 1.000369 1.393121
  H 0.053940 -0.011419 -0.011039
  H 0.373595 1.694413 -0.229225
  H 3.816831 1.315860 1.124974
  H 3.635769 -0.419656 1.268976
  H 1.797820 -0.080748 2.930102
  H 2.008648 1.671023 2.788425
  H 4.154766 -0.295155 3.709890
  H 3.234788 0.792217 4.745085
  H 4.363156 1.452315 3.565448
  H 1.833202 0.284590 -1.916908
  H 5.740981 1.062104 -1.597018
  H 6.051653 -2.338318 -1.507439
  H 5.544236 -2.194898 -3.194095
  H 6.354720 0.412354 -2.974590
 26
 47.007042
  C 0.654094 0.717870 0.347206
  C 2.115420 0.512366 0.170706
  C 3.082887 0.544353 1.309769
  C 2.502916 0.725897 2.709507
  C 3.613909 0.725564 3.755459
  C 2.590005 0.258479 -1.104623
  C 3.885841 0.059226 -1.441959
  C 4.892325 -0.587655 -1.923943
  C 5.122308 -2.032006 -2.197778
  H 4.215060 -2.594948 -2.007631
  O 6.182346 0.162047 -2.060135
  H 0.378009 0.883160 1.381640
  H 0.102372 -0.146680 -0.024949
  H 0.322078 1.575175 -0.241007
  H 3.797707 1.354527 1.130317
  H 3.660709 -0.386270 1.291837
  H 1.806767 -0.084291 2.935862
  H 1.961321 1.671654 2.774957
  H 4.160671 -0.214624 3.737916
  H 3.197402 0.855088 4.751700
  H 4.315308 1.537082 3.575005
  H 1.881252 0.303178 -1.924958
  H 6.087638 0.917428 -1.440573
  H 5.923781 -2.410865 -1.567456
  H 5.402627 -2.174419 -3.239592
  H 6.446420 0.456728 -2.962584
