 18
 0.000000
  C 0.903486 0.052572 0.203966
  C 2.402238 0.058719 0.094977
  C 3.256602 -0.011849 1.345669
  C 2.526569 -0.087183 2.680698
  H 3.250944 -0.132793 3.489019
  C 3.008690 0.125252 -1.084096
  C 2.359498 0.201151 -2.429165
  H 1.273708 0.199249 -2.395449
  H 4.091024 0.127461 -1.123220
  H 0.566923 -0.005497 1.233039
  H 0.487534 -0.803669 -0.325157
  H 0.487534 0.962911 -0.225476
  H 3.907538 0.867201 1.362714
  H 3.907546 -0.887238 1.263715
  H 1.901082 -0.975526 2.735693
  H 1.901051 0.789357 2.835282
  H 2.687542 -0.643150 -3.039576
  H 2.687551 1.108786 -2.940743
 18
 9.128770
  C 0.910871 0.047789 0.196887
  C 2.402258 0.042181 0.093341
  C 3.281956 -0.006662 1.310434
  C 2.501518 -0.051390 2.780611
  H 3.236270 -0.156374 3.564923
  C 3.030042 0.126310 -1.142784
  C 2.361188 0.207789 -2.462763
  H 1.282854 0.189369 -2.371941
  H 4.111164 0.130349 -1.162541
  H 0.577069 -0.023181 1.225485
  H 0.487229 -0.799052 -0.348196
  H 0.500370 0.963877 -0.229161
  H 3.943325 0.864892 1.342433
  H 3.922829 -0.888759 1.268583
  H 1.911682 -0.970147 2.793883
  H 1.814648 0.777753 2.880378
  H 2.668959 -0.633373 -3.085928
  H 2.659151 1.124534 -2.974330
 18
 30.260253
  C 0.927583 0.039023 0.186856
  C 2.417648 0.045218 0.071561
  C 3.316636 -0.017548 1.257236
  C 2.428059 -0.082066 2.918000
  H 3.227322 -0.118229 3.643070
  C 3.052098 0.135982 -1.206493
  C 2.355766 0.214772 -2.513518
  H 1.273186 0.196049 -2.401989
  H 4.128866 0.142135 -1.226811
  H 0.617436 -0.043115 1.219962
  H 0.501050 -0.805070 -0.366724
  H 0.505642 0.960241 -0.226941
  H 3.950884 0.859477 1.344753
  H 3.929160 -0.916438 1.269209
  H 1.849036 -0.985209 2.913472
  H 1.822625 0.807799 2.984514
  H 2.655087 -0.623888 -3.151106
  H 2.636513 1.132322 -3.032170
 18
 56.819378
  C 0.960198 0.032158 0.174035
  C 2.449652 0.047327 0.031286
  C 3.364429 -0.022683 1.189297
  C 2.354608 -0.083945 3.070575
  H 3.188536 -0.112099 3.748069
  C 3.065193 0.141958 -1.265632
  C 2.340424 0.220898 -2.560635
  H 1.257725 0.198903 -2.425522
  H 4.142750 0.151721 -1.304917
  H 0.678433 -0.057553 1.211493
  H 0.527133 -0.807707 -0.374730
  H 0.525224 0.952958 -0.223399
  H 3.979033 0.857061 1.337063
  H 3.941045 -0.935435 1.257044
  H 1.782228 -0.989772 3.029492
  H 1.789733 0.822198 3.091356
  H 2.629364 -0.613991 -3.203531
  H 2.607768 1.140283 -3.083443
 18
 80.348859
  C 1.010528 0.016135 0.159408
  C 2.495083 0.041375 -0.030722
  C 3.421035 -0.034873 1.108393
  C 2.266481 -0.072944 3.235802
  H 3.133104 -0.101782 3.867199
  C 3.069709 0.146359 -1.318748
  C 2.316688 0.234165 -2.601828
  H 1.243437 0.207791 -2.446645
  H 4.143919 0.161649 -1.391276
  H 0.771161 -0.083314 1.206016
  H 0.566100 -0.818312 -0.379147
  H 0.560393 0.934555 -0.213887
  H 4.015417 0.842035 1.310900
  H 3.954531 -0.964395 1.242853
  H 1.697201 -0.982790 3.157581
  H 1.733420 0.850701 3.200440
  H 2.595143 -0.593280 -3.256781
  H 2.571082 1.160015 -3.121001
 18
 97.601739
  C 1.064904 -0.007182 0.139166
  C 2.549795 0.034048 -0.104217
  C 3.478143 -0.052494 1.020508
  C 2.172298 -0.053627 3.409113
  H 3.065582 -0.096934 3.997525
  C 3.074310 0.153676 -1.367650
  C 2.290579 0.250228 -2.635387
  H 1.228802 0.216027 -2.457983
  H 4.151593 0.176261 -1.480283
  H 0.866775 -0.123104 1.209250
  H 0.606492 -0.842618 -0.396849
  H 0.593030 0.921179 -0.208569
  H 4.065522 0.819754 1.264127
  H 3.960672 -0.995095 1.212231
  H 1.604521 -0.949867 3.303190
  H 1.673294 0.879033 3.329016
  H 2.559120 -0.569030 -3.303354
  H 2.528965 1.184886 -3.149905
 18
 108.169259
  C 1.113271 -0.072044 0.127344
  C 2.593581 0.008099 -0.156703
  C 3.531098 -0.102160 0.955894
  C 2.090026 0.008793 3.570886
  H 3.011950 -0.070001 4.104490
  C 3.081194 0.176273 -1.423730
  C 2.269726 0.290012 -2.666505
  H 1.206092 0.226543 -2.465219
  H 4.147833 0.225973 -1.562206
  H 0.951449 -0.223941 1.182123
  H 0.653875 -0.892798 -0.420557
  H 0.622439 0.851950 -0.170733
  H 4.138945 0.745549 1.216981
  H 3.914958 -1.060321 1.227431
  H 1.492708 -0.875609 3.432691
  H 1.652915 0.970911 3.423615
  H 2.541219 -0.502659 -3.362215
  H 2.476844 1.244088 -3.156895
 18
 114.437489
  C 1.169683 -0.138437 0.104853
  C 2.640070 -0.016340 -0.215245
  C 3.575590 -0.145710 0.890637
  C 2.003279 0.073932 3.743747
  H 2.942873 -0.045982 4.233956
  C 3.086019 0.190568 -1.473774
  C 2.241538 0.332540 -2.696757
  H 1.181423 0.255443 -2.471745
  H 4.151803 0.250962 -1.646003
  H 1.037459 -0.323202 1.168250
  H 0.709463 -0.952084 -0.456569
  H 0.658913 0.788599 -0.154629
  H 4.213928 0.680229 1.161779
  H 3.874027 -1.119653 1.227778
  H 1.390157 -0.783310 3.570626
  H 1.620982 1.050426 3.549320
  H 2.501873 -0.439041 -3.419606
  H 2.430130 1.297643 -3.162261
 18
 116.763757
  C 1.208441 -0.206565 0.079934
  C 2.672820 -0.042919 -0.263053
  C 3.610563 -0.188067 0.824540
  C 1.935163 0.140029 3.915234
  H 2.886032 -0.020537 4.369667
  C 3.089991 0.202374 -1.518729
  C 2.222806 0.374612 -2.721279
  H 1.169486 0.285748 -2.480617
  H 4.153486 0.272602 -1.710594
  H 1.097371 -0.423820 1.137844
  H 0.749550 -1.011529 -0.495604
  H 0.677334 0.719062 -0.138966
  H 4.297616 0.608416 1.070051
  H 3.801538 -1.155136 1.246217
  H 1.301899 -0.694260 3.709129
  H 1.604541 1.130152 3.690519
  H 2.474695 -0.374698 -3.475362
  H 2.398023 1.353472 -3.161532
 18
 116.190159
  C 1.248953 -0.248332 0.057062
  C 2.707411 -0.059895 -0.311626
  C 3.656656 -0.218892 0.752908
  C 1.863586 0.187408 4.074232
  H 2.807430 -0.001680 4.528691
  C 3.091347 0.208919 -1.567727
  C 2.200639 0.401763 -2.738457
  H 1.153566 0.304439 -2.475532
  H 4.148664 0.286443 -1.781265
  H 1.160595 -0.487094 1.120233
  H 0.782453 -1.043286 -0.526986
  H 0.710554 0.671031 -0.127471
  H 4.398961 0.531204 0.951963
  H 3.736521 -1.152049 1.272561
  H 1.216607 -0.628387 3.835815
  H 1.568734 1.182002 3.846499
  H 2.440885 -0.334740 -3.523573
  H 2.363286 1.389567 -3.160719
 18
 113.019671
  C 1.294677 -0.300462 0.054802
  C 2.741880 -0.089672 -0.331632
  C 3.707590 -0.280244 0.682281
  C 1.792601 0.247968 4.194288
  H 2.706863 0.021788 4.697268
  C 3.096695 0.235438 -1.606200
  C 2.170391 0.426041 -2.755666
  H 1.131565 0.278890 -2.476760
  H 4.146453 0.360431 -1.837168
  H 1.231101 -0.576914 1.100357
  H 0.816211 -1.069545 -0.553596
  H 0.746177 0.631480 -0.079564
  H 4.533562 0.393250 0.816656
  H 3.670828 -1.158637 1.300107
  H 1.112980 -0.538296 3.941593
  H 1.536420 1.260317 3.982349
  H 2.417529 -0.264890 -3.556003
  H 2.285158 1.436842 -3.158078
 18
 110.368628
  C 1.334888 -0.327600 0.053868
  C 2.771405 -0.115628 -0.362306
  C 3.756444 -0.332477 0.603273
  C 1.712626 0.297229 4.326426
  H 2.582670 0.054139 4.895534
  C 3.093049 0.246301 -1.637448
  C 2.141895 0.448016 -2.762473
  H 1.111492 0.282672 -2.467277
  H 4.135398 0.391004 -1.888809
  H 1.295230 -0.632682 1.091817
  H 0.831590 -1.075936 -0.563311
  H 0.791281 0.610565 -0.040839
  H 4.648307 0.273649 0.654741
  H 3.663494 -1.149524 1.294096
  H 1.026547 -0.470675 4.046299
  H 1.470040 1.322151 4.137078
  H 2.383521 -0.228080 -3.584791
  H 2.235513 1.465016 -3.149436
 18
 102.914462
  C 2.085514 -1.514303 0.240255
  C 2.590948 -0.245166 -0.406733
  C 3.366509 0.612010 0.338820
  C 1.203845 0.352288 4.305361
  H 1.883871 0.998940 4.813300
  C 2.241079 -0.037215 -1.726259
  C 2.657496 1.098510 -2.593449
  H 3.298353 1.803626 -2.070940
  H 1.608601 -0.774857 -2.201166
  H 2.447173 -1.599646 1.258800
  H 2.403498 -2.394859 -0.320342
  H 0.996802 -1.505200 0.261973
  H 3.627461 1.605485 0.004918
  H 3.718697 0.323267 1.309625
  H 1.414359 -0.691831 4.231565
  H 0.282488 0.739491 3.923610
  H 1.777273 1.629858 -2.967012
  H 3.194263 0.724458 -3.469370
