 9
 0.000000
  C 0.966570 0.154772 0.437544
  C 2.403911 0.124672 0.362125
  H 2.984671 0.465701 1.210167
  C 3.034441 -0.332193 -0.774642
  H 4.107071 -0.369191 -0.867738
  H 0.586014 0.534089 1.381361
  H 0.540606 -0.839788 0.222713
  H 0.539943 0.723653 -0.405568
  H 2.431881 -0.667072 -1.606674
 9
 -0.571345
  C 0.956279 0.193923 0.442441
  C 2.390544 0.078678 0.357392
  H 2.985626 0.362868 1.220721
  C 3.032067 -0.344126 -0.776052
  H 4.098084 -0.225289 -0.897132
  H 0.599640 0.585275 1.388474
  H 0.518649 -0.800389 0.234464
  H 0.520134 0.739031 -0.407128
  H 2.497814 -0.794409 -1.601552
 9
 -0.993929
  C 0.936997 0.219049 0.422105
  C 2.374034 0.047194 0.329528
  H 2.946335 0.248084 1.237351
  C 3.048094 -0.326010 -0.784176
  H 4.096155 -0.110804 -0.928296
  H 0.607864 0.624204 1.374005
  H 0.494898 -0.784018 0.299083
  H 0.517441 0.784018 -0.414984
  H 2.564586 -0.903492 -1.566380
 9
 0.502841
  C 0.934972 0.222204 0.408667
  C 2.375653 0.045909 0.314952
  H 2.897591 0.215068 1.258836
  C 3.063735 -0.286062 -0.795604
  H 4.110493 -0.094254 -0.967954
  H 0.616584 0.636767 1.361338
  H 0.478509 -0.775024 0.312842
  H 0.532850 0.817521 -0.413917
  H 2.559841 -0.970008 -1.472016
 9
 4.561611
  C 0.928816 0.217677 0.394606
  C 2.379302 0.038361 0.294640
  H 2.860857 0.226800 1.264752
  C 3.085737 -0.254267 -0.807962
  H 4.124176 -0.095717 -1.007707
  H 0.622766 0.632388 1.354566
  H 0.448289 -0.763062 0.308476
  H 0.543980 0.858949 -0.395975
  H 2.548160 -1.032932 -1.352250
 9
 10.277521
  C 0.943151 0.232901 0.384322
  C 2.395543 0.014415 0.327412
  H 2.810511 0.173405 1.330725
  C 3.069865 -0.226130 -0.809208
  H 4.076175 -0.031305 -1.109531
  H 0.631868 0.686530 1.323618
  H 0.429908 -0.730316 0.309654
  H 0.597455 0.835887 -0.451719
  H 2.549765 -1.111271 -1.207889
 9
 19.826095
  C 0.930647 0.229226 0.358922
  C 2.392161 0.000222 0.302618
  H 2.771789 0.125661 1.326029
  C 3.109058 -0.157399 -0.823499
  H 4.121662 -0.067876 -1.147121
  H 0.646334 0.714415 1.291350
  H 0.403897 -0.726853 0.373094
  H 0.579222 0.808680 -0.491347
  H 2.502549 -1.065745 -1.048621
 9
 31.273577
  C 0.912227 0.232595 0.332741
  C 2.378910 -0.015726 0.279843
  H 2.781198 0.092278 1.301890
  C 3.132604 -0.094689 -0.825042
  H 4.134600 -0.111785 -1.192832
  H 0.641659 0.728815 1.263378
  H 0.374499 -0.715248 0.365608
  H 0.568548 0.819527 -0.513679
  H 2.483317 -1.058414 -0.822065
 9
 37.560431
  C 0.900749 0.235853 0.316556
  C 2.379771 0.004174 0.282508
  H 2.796683 0.123071 1.297833
  C 3.143046 -0.133462 -0.805627
  H 4.103742 -0.105934 -1.263156
  H 0.610742 0.702286 1.256375
  H 0.347169 -0.701436 0.256995
  H 0.589401 0.871418 -0.499889
  H 2.481480 -1.095648 -0.599895
 9
 45.532511
  C 0.904645 0.223210 0.279080
  C 2.408145 -0.070894 0.289040
  H 2.795600 0.015581 1.315350
  C 3.183195 -0.068522 -0.790110
  H 4.098424 0.014944 -1.324188
  H 0.638627 0.772046 1.178782
  H 0.302533 -0.681745 0.274280
  H 0.640543 0.821547 -0.586240
  H 2.317191 -1.104937 -0.332052
 9
 49.993835
  C 0.899744 0.212758 0.254259
  C 2.425516 -0.116359 0.292891
  H 2.827782 0.006161 1.309153
  C 3.207117 -0.063151 -0.780038
  H 4.105528 0.099790 -1.324862
  H 0.652074 0.773682 1.151011
  H 0.258258 -0.664848 0.249417
  H 0.672783 0.819091 -0.616732
  H 2.159094 -1.146165 -0.152324
 9
 53.756193
  C 0.893009 0.177033 0.247384
  C 2.454656 -0.105318 0.280666
  H 2.872953 0.006194 1.289916
  C 3.262709 -0.044702 -0.767923
  H 4.174484 0.099017 -1.287008
  H 0.656909 0.736506 1.149179
  H 0.222524 -0.686387 0.262057
  H 0.658313 0.780894 -0.624354
  H 1.924777 -1.052815 -0.080976
 9
 53.626495
  C 0.884378 0.147824 0.235320
  C 2.476834 -0.110130 0.274248
  H 2.887750 -0.046661 1.289699
  C 3.273298 -0.004828 -0.761327
  H 4.190982 0.145917 -1.267153
  H 0.684046 0.722454 1.136716
  H 0.176022 -0.690508 0.266972
  H 0.669617 0.739209 -0.650023
  H 1.775381 -0.997740 0.041217
 9
 53.595829
  C 0.863116 0.098888 0.230698
  C 2.540232 -0.099841 0.310489
  H 2.869770 -0.073938 1.349011
  C 3.316039 0.021534 -0.710231
  H 4.169881 0.167566 -1.313075
  H 0.691767 0.670909 1.139527
  H 0.102114 -0.700701 0.259382
  H 0.685931 0.702351 -0.655366
  H 1.641042 -0.895765 0.086057
