 25
 0.000000
  H 1.474678 0.064455 -0.006557
  C 2.553245 0.066319 -0.039629
  C 3.225592 -0.009360 1.301638
  C 2.241627 -0.074936 2.463684
  H 2.772176 -0.128360 3.410508
  C 3.188548 0.132728 -1.216515
  C 2.471146 0.207409 -2.540030
  C 0.946660 0.205664 -2.509042
  C 0.375493 0.285358 -3.921435
  C 4.645309 0.136913 -1.290638
  C 5.383382 0.199156 -2.393808
  H 6.460962 0.197552 -2.365352
  H 3.869400 0.865541 1.438289
  H 3.869403 -0.894081 1.338999
  H 1.604129 -0.952950 2.375535
  H 1.604118 0.807421 2.474870
  H 2.800586 -0.637815 -3.153031
  H 2.800586 1.116228 -3.054053
  H 0.581682 1.060732 -1.936486
  H 0.581681 -0.708387 -2.036312
  H 0.700457 1.197094 -4.418389
  H -0.711945 0.283630 -3.890799
  H 0.700458 -0.564691 -4.517803
  H 5.169478 0.083647 -0.346628
  H 4.984137 0.255538 -3.392997
 25
 7.126907
  H 1.502491 0.065449 -0.024174
  C 2.581102 0.067527 -0.061036
  C 3.255329 -0.007788 1.273773
  C 2.161434 -0.079882 2.551324
  H 2.690413 -0.133214 3.496533
  C 3.208879 0.134030 -1.239591
  C 2.479838 0.208351 -2.556730
  C 0.955753 0.205517 -2.506440
  C 0.366379 0.284790 -3.911372
  C 4.664691 0.138709 -1.322458
  C 5.395039 0.201186 -2.429788
  H 6.472741 0.199846 -2.406000
  H 3.895037 0.865713 1.416208
  H 3.895039 -0.891765 1.317039
  H 1.528388 -0.956752 2.456011
  H 1.528379 0.802141 2.555263
  H 2.803476 -0.636920 -3.172740
  H 2.803476 1.117556 -3.073740
  H 0.598264 1.060166 -1.928432
  H 0.598264 -0.708731 -2.028246
  H 0.684677 1.196737 -4.412272
  H -0.720597 0.282300 -3.867231
  H 0.684676 -0.565021 -4.511681
  H 5.193779 0.085582 -0.380921
  H 4.987432 0.257367 -3.425420
 25
 22.385818
  H 1.537473 0.066204 -0.037551
  C 2.616479 0.068498 -0.078221
  C 3.291096 -0.006022 1.242480
  C 2.065397 -0.083552 2.616351
  H 2.590628 -0.136661 3.557579
  C 3.236672 0.135333 -1.262674
  C 2.490727 0.209188 -2.571545
  C 0.967638 0.204692 -2.491817
  C 0.350563 0.283291 -3.884785
  C 4.692016 0.140582 -1.355652
  C 5.413967 0.203417 -2.469315
  H 6.491684 0.202262 -2.448816
  H 3.916214 0.865390 1.410888
  H 3.916219 -0.890848 1.311790
  H 1.447723 -0.959807 2.492245
  H 1.447710 0.801104 2.591609
  H 2.805922 -0.636287 -3.191521
  H 2.805922 1.119036 -3.092472
  H 0.622308 1.058544 -1.905266
  H 0.622306 -0.709729 -2.005040
  H 0.658827 1.195508 -4.391441
  H -0.735330 0.279652 -3.820281
  H 0.658826 -0.566143 -4.490844
  H 5.225709 0.087557 -0.415912
  H 4.994291 0.259295 -3.459599
 25
 39.251405
  H 1.566552 0.066725 -0.046779
  C 2.644966 0.069412 -0.094409
  C 3.331860 -0.004710 1.219249
  C 1.982212 -0.088032 2.695755
  H 2.515534 -0.140938 3.633395
  C 3.254066 0.136514 -1.283593
  C 2.495542 0.210003 -2.585988
  C 0.973375 0.204511 -2.488627
  C 0.339897 0.282682 -3.874025
  C 4.707392 0.142260 -1.385406
  C 5.421005 0.205324 -2.503123
  H 6.498463 0.204377 -2.486340
  H 3.945561 0.871419 1.412966
  H 3.945559 -0.897062 1.313176
  H 1.377123 -0.970216 2.545200
  H 1.377124 0.805475 2.645397
  H 2.805238 -0.635554 -3.208325
  H 2.805241 1.120204 -3.109257
  H 0.635611 1.057877 -1.897075
  H 0.635612 -0.709976 -1.996832
  H 0.642229 1.195032 -4.383983
  H -0.745145 0.278363 -3.797463
  H 0.642229 -0.566517 -4.483383
  H 5.244730 0.089357 -0.447810
  H 4.990945 0.260930 -3.488617
 25
 56.100006
  H 1.592505 0.066770 -0.047584
  C 2.670642 0.069981 -0.104504
  C 3.368349 -0.003281 1.193900
  C 1.899004 -0.092598 2.776642
  H 2.442002 -0.144961 3.704648
  C 3.269707 0.137574 -1.302378
  C 2.499043 0.210658 -2.597615
  C 0.977854 0.204279 -2.484534
  C 0.329914 0.282066 -3.863133
  C 4.723924 0.143895 -1.414378
  C 5.431435 0.207385 -2.539649
  H 6.509015 0.206714 -2.527717
  H 3.967042 0.873435 1.409673
  H 3.967047 -0.898704 1.309678
  H 1.309518 -0.976409 2.602975
  H 1.309505 0.805142 2.703500
  H 2.803544 -0.635044 -3.222262
  H 2.803549 1.121268 -3.123165
  H 0.646619 1.057368 -1.888779
  H 0.646619 -0.710409 -1.988529
  H 0.626857 1.194570 -4.376041
  H -0.754256 0.277137 -3.775757
  H 0.626854 -0.566946 -4.475432
  H 5.265587 0.091106 -0.478811
  H 4.991713 0.262750 -3.520852
 25
 71.401568
  H 1.619856 0.067250 -0.056075
  C 2.697701 0.070923 -0.121174
  C 3.408302 -0.001805 1.167771
  C 1.820306 -0.097163 2.857576
  H 2.375872 -0.149124 3.778516
  C 3.283450 0.138610 -1.320721
  C 2.502070 0.211289 -2.608789
  C 0.981999 0.204117 -2.481662
  C 0.321184 0.281556 -3.854042
  C 4.734240 0.145430 -1.441566
  C 5.430586 0.208855 -2.565670
  H 6.507668 0.208466 -2.558749
  H 3.993902 0.878902 1.405785
  H 3.993909 -0.903698 1.305202
  H 1.244240 -0.985711 2.661451
  H 1.244236 0.807798 2.762652
  H 2.801852 -0.634515 -3.235554
  H 2.801852 1.122220 -3.136420
  H 0.656545 1.056919 -1.882377
  H 0.656543 -0.710688 -1.982117
  H 0.613182 1.194172 -4.369569
  H -0.762109 0.276075 -3.756885
  H 0.613179 -0.567273 -4.468960
  H 5.279771 0.092788 -0.508576
  H 4.982064 0.263968 -3.542448
 25
 84.541042
  H 1.641389 0.066920 -0.050268
  C 2.719241 0.071132 -0.124905
  C 3.440349 -0.000922 1.152090
  C 1.734691 -0.102369 2.949789
  H 2.301423 -0.153782 3.861009
  C 3.297395 0.139689 -1.339880
  C 2.503353 0.211999 -2.621389
  C 0.984465 0.203988 -2.479389
  C 0.310079 0.281050 -3.845104
  C 4.752085 0.147183 -1.472658
  C 5.448784 0.211647 -2.615180
  H 6.526628 0.211627 -2.614799
  H 4.011089 0.880971 1.410036
  H 4.011094 -0.906228 1.309192
  H 1.173256 -0.992525 2.733699
  H 1.173243 0.806446 2.835207
  H 2.797778 -0.633875 -3.250635
  H 2.797786 1.123302 -3.151495
  H 0.664893 1.056625 -1.876582
  H 0.664891 -0.711045 -1.976326
  H 0.596702 1.193793 -4.363400
  H -0.772187 0.274980 -3.737471
  H 0.596699 -0.567599 -4.462790
  H 5.302636 0.094638 -0.541404
  H 4.991578 0.266573 -3.588624
 25
 95.422676
  H 1.675797 0.068077 -0.070696
  C 2.752626 0.072731 -0.153182
  C 3.484299 0.001305 1.112658
  C 1.662204 -0.106292 3.019351
  H 2.241483 -0.157260 3.922679
  C 3.310590 0.140586 -1.355719
  C 2.507267 0.212380 -2.628127
  C 0.989865 0.203585 -2.472221
  C 0.302794 0.280284 -3.831528
  C 4.754362 0.148483 -1.495650
  C 5.425036 0.211543 -2.613292
  H 6.500893 0.211836 -2.618480
  H 4.041821 0.886227 1.389504
  H 4.041831 -0.909146 1.288202
  H 1.113471 -0.999796 2.784584
  H 1.113467 0.807937 2.886588
  H 2.797011 -0.633429 -3.259401
  H 2.797008 1.123824 -3.160241
  H 0.675827 1.056008 -1.866238
  H 0.675825 -0.711594 -1.965977
  H 0.584284 1.193167 -4.352409
  H -0.778417 0.273654 -3.713983
  H 0.584280 -0.568206 -4.451791
  H 5.308678 0.096182 -0.568698
  H 4.959583 0.266143 -3.581042
 25
 102.215897
  H 1.693729 0.066802 -0.048238
  C 2.772061 0.072156 -0.143098
  C 3.517974 0.001654 1.106369
  C 1.569338 -0.111549 3.112278
  H 2.198885 -0.160163 3.973820
  C 3.320351 0.141709 -1.375698
  C 2.505034 0.213077 -2.640445
  C 0.990164 0.203362 -2.468191
  C 0.285627 0.279730 -3.821585
  C 4.767799 0.150167 -1.525614
  C 5.444708 0.214451 -2.664876
  H 6.519976 0.214935 -2.673375
  H 4.028792 0.886730 1.445003
  H 4.028779 -0.915861 1.343273
  H 1.078254 -1.009059 2.807612
  H 1.078212 0.814586 2.910504
  H 2.789420 -0.632577 -3.273959
  H 2.789421 1.124627 -3.174807
  H 0.683258 1.056518 -1.857626
  H 0.683243 -0.713083 -1.957464
  H 0.560599 1.193317 -4.346139
  H -0.794336 0.272365 -3.690953
  H 0.560602 -0.569080 -4.445605
  H 5.317207 0.097703 -0.595812
  H 4.971031 0.268793 -3.627899
 25
 108.918501
  H 1.719825 0.067837 -0.066520
  C 2.796756 0.073523 -0.167253
  C 3.548334 0.003490 1.073960
  C 1.489987 -0.116220 3.195257
  H 2.130823 -0.164491 4.050832
  C 3.328992 0.142309 -1.386320
  C 2.503612 0.213299 -2.644453
  C 0.989565 0.202835 -2.458928
  C 0.274864 0.278714 -3.803667
  C 4.776352 0.151194 -1.543784
  C 5.452382 0.216124 -2.694562
  H 6.529344 0.216909 -2.708373
  H 4.049950 0.892373 1.423521
  H 4.049953 -0.919056 1.321306
  H 1.006309 -1.017373 2.879442
  H 1.006301 0.814723 2.982824
  H 2.783243 -0.632601 -3.280388
  H 2.783248 1.125372 -3.181201
  H 0.687745 1.054887 -1.846414
  H 0.687737 -0.712715 -1.946143
  H 0.544882 1.191627 -4.329911
  H -0.803399 0.270840 -3.663998
  H 0.544874 -0.569212 -4.429272
  H 5.330466 0.098747 -0.614244
  H 4.972860 0.270414 -3.656696
 25
 114.115111
  H 1.733719 0.066923 -0.050314
  C 2.812060 0.073231 -0.162056
  C 3.576813 0.003188 1.079339
  C 1.412125 -0.123220 3.319272
  H 2.066417 -0.170846 4.163402
  C 3.343124 0.144022 -1.416655
  C 2.504493 0.214721 -2.669648
  C 0.991475 0.203504 -2.470784
  C 0.264672 0.279020 -3.809143
  C 4.793934 0.153790 -1.589763
  C 5.446972 0.218013 -2.727987
  H 6.523366 0.219383 -2.752194
  H 4.067517 0.893185 1.440225
  H 4.067533 -0.921760 1.337817
  H 0.940071 -1.024630 2.991136
  H 0.940053 0.809380 3.094622
  H 2.778830 -0.631021 -3.308083
  H 2.778827 1.126908 -3.208894
  H 0.694560 1.055688 -1.855530
  H 0.694558 -0.712472 -1.955298
  H 0.529688 1.192463 -4.337960
  H -0.812742 0.270596 -3.659771
  H 0.529679 -0.569132 -4.437350
  H 5.356628 0.101672 -0.666028
  H 4.956753 0.271969 -3.684248
 25
 117.037755
  H 1.770578 0.067092 -0.053082
  C 2.845637 0.074195 -0.178990
  C 3.617890 0.005243 1.043120
  C 1.323909 -0.126600 3.379430
  H 2.012176 -0.172835 4.199016
  C 3.350925 0.144357 -1.422552
  C 2.502646 0.214326 -2.662654
  C 0.993070 0.202127 -2.446370
  C 0.252190 0.277062 -3.774497
  C 4.791245 0.154616 -1.604400
  C 5.443906 0.219807 -2.759872
  H 6.520256 0.221615 -2.791903
  H 4.058388 0.900542 1.452669
  H 4.058411 -0.930458 1.349364
  H 0.892515 -1.033177 3.002085
  H 0.892544 0.816569 3.106490
  H 2.770898 -0.631492 -3.303628
  H 2.770907 1.126885 -3.204431
  H 0.703037 1.053348 -1.828299
  H 0.703029 -0.713210 -1.927966
  H 0.510426 1.189470 -4.305493
  H -0.822221 0.267974 -3.613340
  H 0.510410 -0.569807 -4.404736
  H 5.354432 0.102485 -0.680403
  H 4.945848 0.273593 -3.713166
 25
 119.661784
  H 1.786834 0.067383 -0.058410
  C 2.863523 0.074934 -0.192224
  C 3.644703 0.006211 1.025755
  C 1.247893 -0.132537 3.484173
  H 1.939767 -0.178217 4.293792
  C 3.358359 0.145158 -1.436793
  C 2.497870 0.214828 -2.671540
  C 0.988980 0.201870 -2.441813
  C 0.234319 0.276574 -3.765756
  C 4.803589 0.155999 -1.628931
  C 5.449170 0.221375 -2.787608
  H 6.524882 0.223534 -2.825846
  H 4.078197 0.899883 1.439160
  H 4.078207 -0.928279 1.335994
  H 0.822577 -1.033598 3.105858
  H 0.822541 0.805395 3.209616
  H 2.760826 -0.630823 -3.314900
  H 2.760831 1.127485 -3.215695
  H 0.703928 1.053882 -1.820299
  H 0.703920 -0.714651 -1.920078
  H 0.487497 1.190479 -4.299998
  H -0.840016 0.266924 -3.594650
  H 0.487492 -0.571441 -4.399414
  H 5.372873 0.104038 -0.707998
  H 4.946181 0.274934 -3.736823
 25
 121.464033
  H 1.804458 0.067334 -0.057360
  C 2.879992 0.075434 -0.200984
  C 3.669987 0.007050 1.010975
  C 1.170264 -0.138577 3.591368
  H 1.871009 -0.184016 4.396723
  C 3.363609 0.145958 -1.450922
  C 2.492951 0.215169 -2.677572
  C 0.987225 0.201468 -2.434652
  C 0.221598 0.275734 -3.750894
  C 4.806488 0.157486 -1.655246
  C 5.442175 0.223174 -2.819499
  H 6.518035 0.225853 -2.866966
  H 4.097258 0.901415 1.429412
  H 4.097269 -0.928701 1.326138
  H 0.747670 -1.042317 3.208079
  H 0.747662 0.802524 3.312186
  H 2.750605 -0.630178 -3.323065
  H 2.750605 1.127745 -3.223872
  H 0.707329 1.053053 -1.810922
  H 0.707324 -0.714865 -1.910673
  H 0.469535 1.189272 -4.286995
  H -0.850563 0.265558 -3.570447
  H 0.469529 -0.571707 -4.386355
  H 5.382764 0.105799 -0.739137
  H 4.930498 0.276534 -3.765222
