18

C 0.911307 0.049183 0.267626
C 2.404679 0.061128 0.083961
H 2.9928228314317034 0.010312086451957123 0.9763760247945816
C 2.997348 0.12829 -1.122973
C 2.35364 0.205091 -2.495882
C 0.842017 0.217719 -2.714016
C 0.515042 0.300816 -4.202265
H 4.06545101257446 0.13164588679564196 -1.1865708973958835
H 0.605812 -0.006168 1.307515
H 0.467573 -0.820031 -0.213072
H 0.467228 0.963648 -0.118326
H 2.74072 -0.644166 -3.070336
H 2.741226 1.112757 -2.97233
H 0.39013 1.079273 -2.223565
H 0.389604 -0.69274 -2.322368
H 0.923008 1.209705 -4.641365
H -0.563712 0.309244 -4.347417
H 0.922472 -0.553863 -4.739707
