 18
 0.000000
  C 0.891619 0.045362 0.351461
  C 2.361302 0.063616 0.053372
  H 3.007547 0.012491 0.917919
  C 2.931426 0.129517 -1.143583
  C 2.359750 0.206750 -2.530932
  C 0.849865 0.219551 -2.749187
  C 0.530459 0.302581 -4.239264
  H 4.014879 0.131510 -1.177534
  H 0.710645 -0.014566 1.422736
  H 0.411501 -0.816623 -0.106599
  H 0.407137 0.951654 -0.004604
  H 2.771593 -0.640665 -3.092695
  H 2.772237 1.110827 -2.995535
  H 0.401960 1.079038 -2.250882
  H 0.401074 -0.689482 -2.349355
  H 0.945221 1.210244 -4.673367
  H -0.546245 0.311764 -4.395310
  H 0.944399 -0.551725 -4.771358
 18
 6.276311
  C 0.866656 0.081913 0.383899
  C 2.304974 0.068700 0.044920
  H 2.985731 0.023150 0.891045
  C 2.903483 0.122268 -1.159188
  C 2.367163 0.195584 -2.544211
  C 0.863372 0.230047 -2.747425
  C 0.526155 0.307455 -4.231357
  H 3.981095 0.104726 -1.162200
  H 0.674710 -0.019376 1.434884
  H 0.654983 -0.815783 -0.152654
  H 0.314569 0.923059 0.006754
  H 2.771422 -0.656309 -3.091667
  H 2.797251 1.083208 -3.008893
  H 0.440792 1.100428 -2.242757
  H 0.406657 -0.668744 -2.330623
  H 0.953351 1.204744 -4.675481
  H -0.551109 0.333661 -4.376867
  H 0.921857 -0.557751 -4.760357
 18
 18.421354
  C 0.873096 0.061216 0.404427
  C 2.287666 0.092796 0.069703
  H 2.985701 0.098864 0.906217
  C 2.886406 0.126365 -1.133855
  C 2.351512 0.180007 -2.534502
  C 0.840863 0.268302 -2.758580
  C 0.521706 0.321864 -4.250031
  H 3.968040 0.081984 -1.130161
  H 0.661976 -0.038376 1.461366
  H 0.936439 -0.863581 -0.123661
  H 0.237488 0.808137 -0.060596
  H 2.730874 -0.706662 -3.060831
  H 2.817983 1.045737 -3.021156
  H 0.449370 1.168918 -2.282111
  H 0.339679 -0.597628 -2.323822
  H 0.991171 1.188551 -4.711668
  H -0.551920 0.388760 -4.409189
  H 0.887114 -0.571617 -4.752184
 18
 32.780581
  C 0.845003 0.069030 0.402981
  C 2.269934 0.086354 0.063384
  H 2.958221 0.089115 0.913434
  C 2.893156 0.119034 -1.138404
  C 2.360590 0.172238 -2.542876
  C 0.849318 0.279457 -2.754025
  C 0.516541 0.327757 -4.238300
  H 3.970214 0.076347 -1.123105
  H 0.624235 -0.011159 1.451452
  H 1.116325 -0.853606 -0.099034
  H 0.179728 0.739224 -0.117570
  H 2.723747 -0.719886 -3.066596
  H 2.833842 1.027118 -3.037361
  H 0.476375 1.189656 -2.279607
  H 0.342880 -0.572952 -2.309944
  H 0.992516 1.182985 -4.709334
  H -0.553980 0.408441 -4.386018
  H 0.863279 -0.571366 -4.736622
 18
 44.391992
  C 0.824107 0.063814 0.407608
  C 2.252978 0.078201 0.050034
  H 2.925675 0.087560 0.907278
  C 2.896018 0.113277 -1.145166
  C 2.369602 0.168562 -2.553742
  C 0.862543 0.296810 -2.751710
  C 0.512206 0.338739 -4.237439
  H 3.972243 0.062310 -1.112784
  H 0.609233 0.056132 1.463330
  H 1.270211 -0.859764 -0.009484
  H 0.115370 0.612291 -0.182495
  H 2.715055 -0.731517 -3.074846
  H 2.854004 1.013744 -3.056853
  H 0.510339 1.214823 -2.280599
  H 0.349997 -0.543778 -2.294981
  H 0.997650 1.186627 -4.722606
  H -0.561127 0.434549 -4.374690
  H 0.840876 -0.572131 -4.734241
 18
 53.027917
  C 0.811421 0.073304 0.425320
  C 2.240125 0.061568 0.043938
  H 2.906604 0.063550 0.904872
  C 2.894288 0.105471 -1.152603
  C 2.373434 0.164875 -2.562726
  C 0.870108 0.303561 -2.756903
  C 0.514624 0.349832 -4.242694
  H 3.974178 0.053822 -1.110882
  H 0.608300 0.137206 1.473620
  H 1.384482 -0.857592 0.084966
  H 0.067255 0.504118 -0.218788
  H 2.710455 -0.737895 -3.087457
  H 2.864301 1.010293 -3.066817
  H 0.526712 1.222894 -2.282910
  H 0.354308 -0.537849 -2.298732
  H 1.002508 1.193253 -4.726630
  H -0.560341 0.452781 -4.377033
  H 0.836853 -0.562917 -4.742515
 18
 60.431306
  C 0.803875 0.090907 0.421269
  C 2.233747 0.046914 0.039248
  H 2.889555 0.047938 0.905964
  C 2.898976 0.097753 -1.154102
  C 2.387436 0.160546 -2.562252
  C 0.868169 0.303571 -2.761517
  C 0.515251 0.354742 -4.239707
  H 3.976748 0.046015 -1.105292
  H 0.596524 0.171571 1.480607
  H 1.467781 -0.845283 0.104081
  H 0.062842 0.462023 -0.237841
  H 2.724017 -0.740238 -3.088001
  H 2.879798 1.002035 -3.060774
  H 0.524027 1.224012 -2.283062
  H 0.349841 -0.541277 -2.305803
  H 1.000846 1.193145 -4.715996
  H -0.566047 0.459808 -4.375810
  H 0.836941 -0.555262 -4.741245
 18
 65.904060
  C 0.803283 0.119171 0.453968
  C 2.231838 0.027249 0.053467
  H 2.902103 0.037828 0.908771
  C 2.893728 0.093089 -1.158523
  C 2.378519 0.157102 -2.565872
  C 0.871036 0.300681 -2.768889
  C 0.525146 0.359683 -4.251801
  H 3.972964 0.038997 -1.110705
  H 0.598794 0.205670 1.500341
  H 1.531049 -0.846706 0.148662
  H 0.037123 0.414061 -0.228085
  H 2.714358 -0.742840 -3.097333
  H 2.871703 1.001063 -3.062633
  H 0.526131 1.216944 -2.288803
  H 0.351425 -0.547484 -2.321133
  H 1.016431 1.207451 -4.725524
  H -0.548740 0.463966 -4.391345
  H 0.849412 -0.549127 -4.756882
 18
 70.942991
  C 0.802630 0.146193 0.441315
  C 2.232464 0.012734 0.055753
  H 2.913120 0.031568 0.928937
  C 2.893985 0.090619 -1.157584
  C 2.376916 0.154293 -2.567021
  C 0.876189 0.295888 -2.766450
  C 0.533436 0.358361 -4.239737
  H 3.961656 0.035997 -1.109960
  H 0.579780 0.219727 1.490622
  H 1.587700 -0.851475 0.134512
  H 0.046408 0.402704 -0.255233
  H 2.715381 -0.751728 -3.106282
  H 2.865769 0.997070 -3.062615
  H 0.529083 1.213279 -2.282627
  H 0.355570 -0.559223 -2.319150
  H 1.027093 1.212781 -4.712804
  H -0.542503 0.461032 -4.379593
  H 0.856197 -0.538064 -4.740438
 18
 73.611517
  C 0.808814 0.196620 0.460466
  C 2.230186 -0.008835 0.073922
  H 2.907253 0.029042 0.925034
  C 2.900939 0.092500 -1.160136
  C 2.383142 0.152983 -2.564094
  C 0.879619 0.295665 -2.766852
  C 0.534917 0.360395 -4.250726
  H 3.980255 0.030917 -1.110309
  H 0.572512 0.226650 1.502945
  H 1.633343 -0.890296 0.142750
  H 0.034266 0.385387 -0.248099
  H 2.720152 -0.750099 -3.101530
  H 2.875278 0.997825 -3.062112
  H 0.531923 1.210199 -2.280912
  H 0.361520 -0.555806 -2.323956
  H 1.024803 1.211750 -4.719849
  H -0.540087 0.463232 -4.391013
  H 0.862032 -0.544594 -4.759675
 18
 75.149764
  C 0.815154 0.249457 0.451966
  C 2.225917 -0.026385 0.083555
  H 2.899988 0.027660 0.937948
  C 2.910026 0.095936 -1.159820
  C 2.389838 0.151481 -2.563048
  C 0.887628 0.294803 -2.759031
  C 0.535169 0.358613 -4.245360
  H 3.989891 0.027541 -1.106062
  H 0.554020 0.222871 1.487788
  H 1.682663 -0.934229 0.122913
  H 0.037204 0.377619 -0.271572
  H 2.723768 -0.753997 -3.100767
  H 2.882554 0.994850 -3.066850
  H 0.545088 1.206705 -2.273750
  H 0.371484 -0.554987 -2.312151
  H 1.022567 1.208079 -4.717098
  H -0.538390 0.462092 -4.380569
  H 0.859428 -0.548734 -4.756490
 18
 75.391646
  C 0.823039 0.299517 0.456759
  C 2.218783 -0.042196 0.092127
  H 2.895726 0.027483 0.943801
  C 2.911182 0.098040 -1.159415
  C 2.393340 0.148125 -2.560373
  C 0.888706 0.295096 -2.761607
  C 0.540955 0.354353 -4.247166
  H 3.988607 0.022574 -1.102167
  H 0.550485 0.212921 1.489049
  H 1.741587 -0.986112 0.101035
  H 0.041461 0.372546 -0.268389
  H 2.726468 -0.759814 -3.095235
  H 2.889103 0.984799 -3.064765
  H 0.546464 1.208780 -2.279855
  H 0.369763 -0.552467 -2.313623
  H 1.031819 1.201987 -4.721007
  H -0.532250 0.458767 -4.385821
  H 0.864211 -0.552388 -4.752472
 18
 74.779231
  C 0.832778 0.341290 0.467540
  C 2.207308 -0.058407 0.098972
  H 2.889884 0.018607 0.946344
  C 2.907962 0.099555 -1.157851
  C 2.394209 0.143853 -2.557344
  C 0.889925 0.292742 -2.765339
  C 0.549354 0.346528 -4.250839
  H 3.983971 0.012432 -1.096508
  H 0.554761 0.200070 1.494543
  H 1.807660 -1.039401 0.067038
  H 0.047579 0.385272 -0.256223
  H 2.728557 -0.765587 -3.089491
  H 2.894287 0.977894 -3.063026
  H 0.546349 1.209604 -2.287047
  H 0.368921 -0.552909 -2.316627
  H 1.042607 1.192949 -4.725749
  H -0.523349 0.451677 -4.394107
  H 0.873632 -0.561811 -4.751382
 18
 75.046327
  C 0.848613 0.358476 0.478717
  C 2.208133 -0.077496 0.108431
  H 2.892279 0.002398 0.953314
  C 2.910053 0.090872 -1.148102
  C 2.395922 0.135591 -2.555915
  C 0.893861 0.286587 -2.770971
  C 0.555639 0.340999 -4.266452
  H 3.978713 -0.003865 -1.084944
  H 0.568543 0.196393 1.501297
  H 1.871354 -1.068544 0.046333
  H 0.057068 0.395883 -0.252014
  H 2.724724 -0.756037 -3.078279
  H 2.894126 0.957463 -3.055888
  H 0.551748 1.201344 -2.294761
  H 0.368315 -0.560220 -2.321202
  H 1.048564 1.180110 -4.737368
  H -0.520564 0.448229 -4.414789
  H 0.879877 -0.566920 -4.766178
