 10
 0.000000
  H 1.415413 0.133316 0.382287
  C 2.493845 0.119841 0.348718
  H 3.049421 0.464545 1.206773
  C 3.107233 -0.339432 -0.794645
  C 4.510693 -0.395191 -0.934542
  C 5.126842 -0.851137 -2.070726
  H 4.582566 -1.198932 -2.937887
  H 6.203986 -0.880644 -2.143460
  H 2.496134 -0.673185 -1.625156
  H 5.116351 -0.060087 -0.100054
 10
 -1.041123
  H 1.442950 0.363205 0.309230
  C 2.499386 0.136351 0.321655
  H 3.045083 0.418787 1.210974
  C 3.094843 -0.450941 -0.747223
  C 4.505324 -0.457012 -0.930040
  C 5.127744 -0.800123 -2.084689
  H 4.592493 -0.907947 -3.017466
  H 6.193342 -0.969072 -2.115928
  H 2.488808 -0.904464 -1.523350
  H 5.102898 -0.109247 -0.090751
 10
 0.636047
  H 1.521031 0.555731 0.185949
  C 2.526578 0.171871 0.287516
  H 3.056077 0.457970 1.182908
  C 3.072030 -0.577769 -0.700055
  C 4.486276 -0.585176 -0.896365
  C 5.119580 -0.715814 -2.081184
  H 4.599613 -0.657058 -3.025728
  H 6.184234 -0.902162 -2.130776
  H 2.451423 -1.039407 -1.458088
  H 5.087281 -0.380817 -0.012262
 10
 5.371576
  H 1.634628 0.735002 0.023867
  C 2.549631 0.189466 0.213047
  H 3.055934 0.466841 1.131168
  C 3.048870 -0.712429 -0.649725
  C 4.474976 -0.660928 -0.841842
  C 5.071295 -0.667305 -2.045355
  H 4.527678 -0.505194 -2.961674
  H 6.141835 -0.775684 -2.129348
  H 2.439442 -1.264830 -1.356033
  H 5.086725 -0.650633 0.054722
 10
 17.014537
  H 1.898569 0.906758 -0.211376
  C 2.688622 0.219336 0.085925
  H 3.121437 0.451046 1.050537
  C 3.007717 -0.874362 -0.632706
  C 4.437216 -0.646589 -0.752302
  C 4.999122 -0.540009 -1.975648
  H 4.428064 -0.295623 -2.856217
  H 6.059963 -0.681324 -2.106956
  H 2.418672 -1.436365 -1.337937
  H 5.071769 -0.764189 0.116957
 10
 25.466937
  H 2.255487 1.003676 -0.448118
  C 2.856456 0.195906 -0.027625
  H 3.167954 0.386220 0.991924
  C 2.937750 -1.019720 -0.636556
  C 4.353484 -0.632997 -0.651788
  C 4.925337 -0.445396 -1.883385
  H 4.350327 -0.141939 -2.742270
  H 5.979950 -0.609072 -2.030202
  H 2.357902 -1.561445 -1.357893
  H 4.981561 -0.826499 0.207135
 10
 25.997394
  H 2.521151 1.035072 -0.596785
  C 2.979660 0.189381 -0.084336
  H 3.058175 0.349309 0.985631
  C 2.951932 -1.082161 -0.629487
  C 4.350718 -0.545321 -0.555847
  C 4.868308 -0.373351 -1.828171
  H 4.266271 0.009569 -2.636510
  H 5.886028 -0.648001 -2.056705
  H 2.415354 -1.675464 -1.338538
  H 4.999558 -0.826436 0.262401
 10
 26.964654
  H 2.616470 1.054806 -0.636678
  C 3.017760 0.193291 -0.104372
  H 2.885650 0.282897 0.968824
  C 3.019995 -1.078788 -0.699544
  C 4.380640 -0.454783 -0.478605
  C 4.791903 -0.383574 -1.807816
  H 4.190748 0.100112 -2.561484
  H 5.719840 -0.832705 -2.129150
  H 2.540863 -1.723657 -1.401204
  H 5.040335 -0.794806 0.307508
 10
 24.515120
  H 2.688702 1.065346 -0.653679
  C 3.088651 0.214918 -0.106432
  H 2.824870 0.251781 0.943216
  C 3.174180 -1.046379 -0.801882
  C 4.456923 -0.361385 -0.386158
  C 4.703944 -0.410941 -1.764504
  H 4.121389 0.143794 -2.485821
  H 5.543381 -0.973012 -2.150064
  H 2.715402 -1.692640 -1.515126
  H 5.111834 -0.719257 0.391951
 10
 17.078272
  H 2.660092 1.035896 -0.658336
  C 3.102201 0.201907 -0.117704
  H 2.765478 0.168164 0.913516
  C 3.287252 -1.042113 -0.906716
  C 4.484866 -0.280055 -0.332316
  C 4.605286 -0.457404 -1.737695
  H 4.106747 0.173020 -2.465019
  H 5.374194 -1.104011 -2.137809
  H 2.713646 -1.661154 -1.562536
  H 5.136988 -0.644031 0.444111
 10
 14.376715
  H 2.592153 1.012479 -0.639346
  C 3.102403 0.199010 -0.126440
  H 2.709065 0.079803 0.883983
  C 3.348748 -1.049691 -0.942604
  C 4.495018 -0.204383 -0.345814
  C 4.589315 -0.475259 -1.750876
  H 4.165354 0.147120 -2.538928
  H 5.355585 -1.145011 -2.124627
  H 2.623588 -1.611551 -1.493688
  H 5.187673 -0.519666 0.418935
 10
 -2.809481
  H 2.755699 1.137875 -0.601022
  C 3.067036 0.181842 -0.177230
  H 2.572607 0.009638 0.775460
  C 3.251316 -0.930173 -1.129177
  C 4.481154 -0.205910 -0.352096
  C 4.481892 -0.470582 -1.802439
  H 4.377269 0.397062 -2.455880
  H 5.177471 -1.187784 -2.230553
  H 2.845797 -1.923982 -1.082839
  H 5.158658 -0.575135 0.396370
