 23
 0.000000
  C 0.999336 0.144961 0.411869
  C 2.474461 0.137701 0.393361
  C 3.241134 0.607044 1.561391
  H 2.627661 0.939373 2.389068
  C 3.085638 -0.327978 -0.766217
  C 4.461224 -0.415220 -0.984181
  C 5.130503 -0.869285 -2.115736
  C 4.623948 -1.390451 -3.414659
  C 3.133127 -1.502838 -3.695645
  H 2.987846 -1.902903 -4.692733
  O 6.451770 -0.868062 -2.112963
  H 0.591793 0.520049 1.345781
  H 0.617173 -0.863370 0.247680
  H 0.616869 0.759483 -0.404128
  H 3.895189 1.428486 1.261364
  H 3.895532 -0.193397 1.912918
  H 2.421943 -0.643886 -1.552379
  H 5.092311 -0.086842 -0.166472
  H 5.082026 -2.377919 -3.541539
  H 5.082510 -0.764943 -4.188961
  H 2.653474 -0.528143 -3.653217
  H 2.653042 -2.177655 -2.991323
  H 6.846730 -0.536420 -1.284814
 23
 -0.058150
  C 0.999388 0.180193 0.453558
  C 2.470656 0.113433 0.385572
  C 3.268416 0.626036 1.514518
  H 2.633563 0.998111 2.312873
  C 3.041967 -0.426796 -0.761372
  C 4.417270 -0.532329 -0.959187
  C 5.123353 -0.886706 -2.106197
  C 4.641062 -1.352137 -3.433959
  C 3.155008 -1.498156 -3.711303
  H 3.031081 -1.854115 -4.730991
  O 6.440242 -0.830684 -2.086650
  H 0.645260 0.620486 1.380780
  H 0.572093 -0.818018 0.345629
  H 0.608670 0.758263 -0.385233
  H 3.921405 1.434722 1.188304
  H 3.911049 -0.155545 1.918291
  H 2.363621 -0.749407 -1.533217
  H 5.039103 -0.240387 -0.122095
  H 5.136168 -2.313322 -3.608933
  H 5.082367 -0.674182 -4.172469
  H 2.640385 -0.545469 -3.633805
  H 2.696853 -2.228638 -3.051892
  H 6.827258 -0.536509 -1.241105
 23
 2.848436
  C 0.992052 0.214355 0.474287
  C 2.454819 0.098387 0.392742
  C 3.302119 0.632873 1.479737
  H 2.698724 1.051279 2.281432
  C 3.015604 -0.494468 -0.741415
  C 4.377384 -0.601392 -0.934345
  C 5.108981 -0.903286 -2.087073
  C 4.649766 -1.322799 -3.441717
  C 3.174884 -1.493034 -3.754730
  H 3.076102 -1.828614 -4.787850
  O 6.416394 -0.820582 -2.044061
  H 0.683265 0.695473 1.399990
  H 0.531945 -0.772511 0.402687
  H 0.608389 0.764615 -0.380117
  H 3.953404 1.418015 1.112157
  H 3.924009 -0.145962 1.894523
  H 2.317453 -0.856419 -1.483393
  H 5.015975 -0.370167 -0.096018
  H 5.172730 -2.258682 -3.634640
  H 5.089805 -0.600924 -4.133795
  H 2.635149 -0.562057 -3.637148
  H 2.725110 -2.251605 -3.126005
  H 6.787543 -0.503881 -1.194417
 23
 3.630226
  C 1.011317 0.196719 0.447335
  C 2.471573 0.067762 0.387057
  C 3.298853 0.696770 1.439753
  H 2.684900 1.156158 2.210331
  C 3.005386 -0.624231 -0.690171
  C 4.381565 -0.695851 -0.909415
  C 5.118201 -0.925663 -2.074186
  C 4.652699 -1.282344 -3.447624
  C 3.165571 -1.431368 -3.723043
  H 3.037276 -1.696206 -4.771586
  O 6.431943 -0.853475 -2.032250
  H 0.676053 0.721471 1.339906
  H 0.559989 -0.793600 0.434299
  H 0.638061 0.707251 -0.443314
  H 3.937464 1.477440 1.017301
  H 3.945592 -0.038197 1.915521
  H 2.322123 -1.011397 -1.426007
  H 5.033481 -0.492625 -0.061438
  H 5.170136 -2.201955 -3.705565
  H 5.062552 -0.500835 -4.104838
  H 2.630637 -0.502457 -3.546005
  H 2.732735 -2.237902 -3.142904
  H 6.815014 -0.647941 -1.151116
 23
 4.160099
  C 1.024002 0.215253 0.369572
  C 2.495732 -0.003144 0.396463
  C 3.292548 0.739997 1.385556
  H 2.663240 1.181637 2.156093
  C 3.044730 -0.791975 -0.597777
  C 4.425393 -0.819496 -0.851694
  C 5.128422 -0.996463 -2.033054
  C 4.634242 -1.224654 -3.420745
  C 3.145154 -1.350663 -3.681330
  H 2.994861 -1.505529 -4.753039
  O 6.441290 -0.911176 -2.017653
  H 0.675187 0.797141 1.215569
  H 0.513271 -0.741818 0.361786
  H 0.735458 0.710036 -0.556623
  H 3.862539 1.536908 0.900171
  H 4.017106 0.082568 1.863886
  H 2.357100 -1.264062 -1.272974
  H 5.071926 -0.643505 0.001158
  H 5.153704 -2.112228 -3.791176
  H 5.023743 -0.384093 -4.013765
  H 2.614342 -0.440456 -3.401230
  H 2.718174 -2.215617 -3.164912
  H 6.840188 -0.771646 -1.132068
 23
 6.261948
  C 1.076351 0.308948 0.220865
  C 2.503085 -0.042706 0.376730
  C 3.281216 0.703299 1.385865
  H 2.630395 1.169709 2.119609
  C 3.076815 -0.905377 -0.531797
  C 4.458233 -0.887144 -0.802942
  C 5.140189 -1.039388 -2.001747
  C 4.601189 -1.156668 -3.387358
  C 3.111907 -1.378025 -3.596746
  H 2.912416 -1.393298 -4.666579
  O 6.454522 -0.947226 -2.016690
  H 0.709967 0.884837 1.064022
  H 0.466255 -0.583862 0.083532
  H 0.957245 0.914791 -0.681053
  H 3.860159 1.492128 0.907388
  H 3.988890 0.051424 1.895547
  H 2.401660 -1.403760 -1.205725
  H 5.088451 -0.750125 0.073016
  H 5.168834 -1.952926 -3.879478
  H 4.899968 -0.238232 -3.909371
  H 2.528739 -0.569707 -3.164089
  H 2.791168 -2.331544 -3.187432
  H 6.869851 -0.856054 -1.139330
 23
 11.890416
  C 1.180030 0.462050 0.034209
  C 2.555119 0.003316 0.320483
  C 3.282435 0.612347 1.454398
  H 2.611012 1.194899 2.088825
  C 3.083393 -0.984564 -0.479359
  C 4.462567 -0.916171 -0.776208
  C 5.109975 -0.960790 -1.988282
  C 4.532242 -1.056628 -3.366240
  C 3.079641 -1.470426 -3.546059
  H 2.859952 -1.520791 -4.610623
  O 6.425684 -0.866242 -2.035268
  H 0.797531 1.090494 0.832371
  H 0.513467 -0.376224 -0.136037
  H 1.186825 1.063977 -0.875548
  H 4.071036 1.275038 1.112738
  H 3.752979 -0.163418 2.060005
  H 2.411217 -1.559872 -1.089260
  H 5.129954 -0.798570 0.084652
  H 5.179519 -1.761339 -3.908402
  H 4.705009 -0.089324 -3.855019
  H 2.397698 -0.757360 -3.090667
  H 2.904345 -2.462512 -3.131287
  H 6.862451 -0.820676 -1.167167
 23
 21.408982
  C 1.331017 0.583395 -0.106923
  C 2.618604 -0.035617 0.279795
  C 3.296034 0.507717 1.482779
  H 2.627618 1.153518 2.045173
  C 3.054062 -1.139608 -0.422047
  C 4.434082 -0.968315 -0.743208
  C 5.056331 -0.901248 -1.966457
  C 4.475539 -1.017200 -3.334631
  C 3.043504 -1.516249 -3.492588
  H 2.822124 -1.597328 -4.551349
  O 6.361548 -0.663298 -2.024286
  H 0.936887 1.224529 0.670440
  H 0.591229 -0.173249 -0.371663
  H 1.489053 1.195103 -0.990258
  H 4.175172 1.105073 1.228844
  H 3.631297 -0.303847 2.119625
  H 2.374415 -1.686283 -1.053119
  H 5.110539 -0.965379 0.110412
  H 5.153371 -1.684120 -3.882453
  H 4.586291 -0.047338 -3.824977
  H 2.327161 -0.820998 -3.064404
  H 2.917358 -2.496830 -3.051756
  H 6.789233 -0.531374 -1.162796
 23
 30.807941
  C 1.417322 0.570848 -0.194407
  C 2.659016 -0.102934 0.261377
  C 3.325647 0.481314 1.440179
  H 2.633208 1.123402 1.978542
  C 3.038488 -1.276874 -0.375617
  C 4.397814 -0.961333 -0.720357
  C 5.020384 -0.840200 -1.939699
  C 4.450871 -0.997646 -3.316192
  C 2.998648 -1.401552 -3.448793
  H 2.759481 -1.500690 -4.508953
  O 6.329253 -0.601940 -1.985084
  H 1.002594 1.223853 0.574351
  H 0.664299 -0.152155 -0.513468
  H 1.657097 1.191716 -1.048706
  H 4.178341 1.100529 1.180516
  H 3.685655 -0.305429 2.102836
  H 2.357777 -1.844055 -0.998371
  H 5.075169 -0.982929 0.130078
  H 5.079899 -1.738901 -3.820616
  H 4.629142 -0.053708 -3.856557
  H 2.332006 -0.653280 -3.029170
  H 2.822104 -2.363303 -2.980691
  H 6.760450 -0.525123 -1.114636
 23
 42.659502
  C 1.665647 0.605849 -0.441929
  C 2.793468 -0.149840 0.187402
  C 3.369165 0.467196 1.419871
  H 2.709237 1.247756 1.780817
  C 3.027232 -1.440646 -0.279897
  C 4.357623 -0.969595 -0.639547
  C 4.926293 -0.772587 -1.883110
  C 4.291105 -0.830663 -3.233800
  C 2.905310 -1.438595 -3.367868
  H 2.615725 -1.412257 -4.421055
  O 6.231942 -0.537184 -1.976808
  H 1.284316 1.377364 0.216507
  H 0.851853 -0.060850 -0.719452
  H 2.024410 1.094947 -1.350799
  H 4.342416 0.929109 1.268757
  H 3.478018 -0.287085 2.196791
  H 2.354349 -2.021946 -0.874933
  H 5.061545 -1.025889 0.184976
  H 4.991773 -1.396680 -3.864050
  H 4.297678 0.183817 -3.644155
  H 2.157570 -0.888136 -2.806793
  H 2.909340 -2.475175 -3.057512
  H 6.712308 -0.519962 -1.130699
 23
 48.582380
  C 1.805894 0.544237 -0.560244
  C 2.907450 -0.220730 0.122783
  C 3.461647 0.465732 1.351113
  H 2.818304 1.286256 1.649070
  C 2.988331 -1.580854 -0.236945
  C 4.260162 -0.943344 -0.581857
  C 4.840833 -0.677731 -1.840043
  C 4.237773 -0.764174 -3.198913
  C 2.856625 -1.386079 -3.369521
  H 2.597837 -1.370158 -4.432928
  O 6.113202 -0.351616 -1.897394
  H 1.453186 1.370908 0.064850
  H 0.962196 -0.106195 -0.783588
  H 2.162623 0.971419 -1.493707
  H 4.451155 0.880985 1.198326
  H 3.518004 -0.241992 2.176060
  H 2.300485 -2.193865 -0.778318
  H 4.977115 -1.069187 0.220812
  H 4.953263 -1.344474 -3.797448
  H 4.264103 0.239821 -3.627704
  H 2.086870 -0.848199 -2.837429
  H 2.861275 -2.422919 -3.050121
  H 6.583166 -0.309946 -1.042949
