 20
 0.000000
  C 0.994195 0.130335 0.374800
  C 2.466709 0.145051 0.413342
  C 3.217041 0.620254 1.596108
  C 2.401429 1.100266 2.789301
  H 3.068472 1.419386 3.584336
  C 3.125550 -0.312862 -0.724696
  C 4.509495 -0.382363 -0.898527
  C 5.104750 -0.844466 -2.050363
  H 4.562554 -1.194868 -2.920243
  O 6.391558 -0.915408 -2.233442
  H 0.525096 0.494915 1.281049
  H 0.641923 -0.885002 0.185055
  H 0.642808 0.732233 -0.464995
  H 3.877322 1.434570 1.277359
  H 3.876520 -0.188621 1.929934
  H 1.768591 0.305763 3.177738
  H 1.769554 1.943237 2.519693
  H 2.505059 -0.643306 -1.546926
  H 5.151897 -0.057468 -0.090856
  H 6.924214 -0.607308 -1.472432
 20
 3.661450
  C 0.984843 0.114807 0.333576
  C 2.436642 0.137466 0.395622
  C 3.177917 0.615659 1.586889
  C 2.376000 1.100460 2.789954
  H 3.064329 1.413425 3.571532
  C 3.146650 -0.312439 -0.720255
  C 4.528642 -0.368811 -0.862362
  C 5.107396 -0.835069 -2.024466
  H 4.493076 -1.172546 -2.853955
  O 6.388349 -0.926440 -2.265178
  H 0.752583 0.501429 1.294636
  H 0.592771 -0.882680 0.178174
  H 0.595507 0.728721 -0.469111
  H 3.842111 1.425698 1.264347
  H 3.839966 -0.193622 1.915517
  H 1.750492 0.312407 3.203086
  H 1.753152 1.956973 2.542175
  H 2.560673 -0.651361 -1.563705
  H 5.168723 -0.043836 -0.055716
  H 6.965185 -0.625290 -1.533499
 20
 13.241593
  C 0.955364 0.109832 0.320456
  C 2.410499 0.131818 0.381463
  C 3.160122 0.604815 1.559821
  C 2.384195 1.093616 2.773150
  H 3.092940 1.400326 3.539722
  C 3.132286 -0.311691 -0.717861
  C 4.531611 -0.365496 -0.854410
  C 5.117323 -0.827366 -2.004617
  H 4.514169 -1.167124 -2.838115
  O 6.384197 -0.912133 -2.229493
  H 0.939461 0.498410 1.287268
  H 0.531493 -0.878727 0.204853
  H 0.534575 0.745236 -0.447454
  H 3.824427 1.409793 1.228173
  H 3.822380 -0.207199 1.878343
  H 1.761484 0.310792 3.203336
  H 1.764342 1.958242 2.541518
  H 2.550153 -0.652576 -1.565222
  H 5.166473 -0.038254 -0.043650
  H 6.956952 -0.604072 -1.482808
 20
 25.796400
  C 0.945605 0.100139 0.294664
  C 2.398299 0.132935 0.384837
  C 3.146809 0.611478 1.577278
  C 2.364053 1.102453 2.795324
  H 3.068902 1.408964 3.562192
  C 3.143724 -0.313826 -0.721019
  C 4.533742 -0.365792 -0.854373
  C 5.117850 -0.831491 -2.014243
  H 4.505268 -1.170152 -2.842410
  O 6.393747 -0.919791 -2.251191
  H 1.089214 0.492451 1.272288
  H 0.516130 -0.889709 0.200703
  H 0.520250 0.752268 -0.458089
  H 3.811145 1.418075 1.247819
  H 3.808625 -0.200369 1.898599
  H 1.741228 0.321783 3.225325
  H 1.744612 1.965921 2.564930
  H 2.570154 -0.656706 -1.571754
  H 5.172712 -0.038147 -0.044556
  H 6.963328 -0.619186 -1.525345
 20
 39.812905
  C 0.911651 0.096906 0.284744
  C 2.387818 0.131905 0.384501
  C 3.146438 0.608195 1.570816
  C 2.371518 1.101611 2.792463
  H 3.081521 1.406900 3.556731
  C 3.140188 -0.313996 -0.717272
  C 4.532413 -0.363709 -0.847788
  C 5.120318 -0.827953 -2.005068
  H 4.512968 -1.168733 -2.835954
  O 6.393023 -0.912428 -2.236453
  H 1.201964 0.478331 1.239326
  H 0.479753 -0.889670 0.209805
  H 0.484648 0.762616 -0.450250
  H 3.810205 1.411987 1.236608
  H 3.806888 -0.205149 1.887512
  H 1.746474 0.321612 3.226187
  H 1.750981 1.967644 2.564382
  H 2.570254 -0.657517 -1.567658
  H 5.168706 -0.035136 -0.038134
  H 6.964678 -0.607210 -1.502459
 20
 53.225742
  C 0.887987 0.092563 0.268475
  C 2.380855 0.124810 0.381958
  C 3.153249 0.607526 1.579321
  C 2.375073 1.110346 2.805435
  H 3.081882 1.414938 3.570288
  C 3.134899 -0.322223 -0.713529
  C 4.530317 -0.363602 -0.844828
  C 5.119061 -0.824797 -2.003154
  H 4.513748 -1.167524 -2.831691
  O 6.388062 -0.905520 -2.234388
  H 1.282362 0.451153 1.187551
  H 0.466434 -0.895419 0.191723
  H 0.466961 0.776710 -0.447541
  H 3.823309 1.410687 1.241758
  H 3.813060 -0.211424 1.897994
  H 1.747000 0.336377 3.237164
  H 1.758880 1.974300 2.573948
  H 2.563956 -0.671281 -1.568157
  H 5.169841 -0.029260 -0.031908
  H 6.961763 -0.598147 -1.500067
 20
 63.121976
  C 0.888838 0.098336 0.259059
  C 2.403309 0.108684 0.400902
  C 3.171971 0.597467 1.595591
  C 2.364098 1.118571 2.787225
  H 3.051886 1.423247 3.576650
  C 3.132349 -0.355433 -0.690964
  C 4.533122 -0.365075 -0.845058
  C 5.110494 -0.812204 -2.006203
  H 4.501795 -1.168992 -2.825778
  O 6.387622 -0.890921 -2.250155
  H 1.367949 0.427310 1.172217
  H 0.485715 -0.893509 0.149798
  H 0.443638 0.829953 -0.390261
  H 3.855357 1.388565 1.274280
  H 3.806693 -0.227517 1.927651
  H 1.707862 0.343992 3.206839
  H 1.759469 1.996447 2.526485
  H 2.567158 -0.710017 -1.526651
  H 5.167625 -0.017078 -0.050296
  H 6.958009 -0.577484 -1.524749
 20
 69.076976
  C 0.888888 0.094100 0.230335
  C 2.424473 0.093917 0.413748
  C 3.197403 0.595237 1.617213
  C 2.364977 1.130409 2.782953
  H 3.030355 1.439267 3.583774
  C 3.126491 -0.382747 -0.675015
  C 4.526288 -0.368891 -0.839663
  C 5.097526 -0.805279 -2.004062
  H 4.487386 -1.172783 -2.826269
  O 6.374396 -0.874240 -2.255320
  H 1.426606 0.389948 1.146955
  H 0.506787 -0.898203 0.063624
  H 0.414879 0.879358 -0.330308
  H 3.892683 1.387184 1.300002
  H 3.820338 -0.239630 1.967810
  H 1.699596 0.369379 3.191083
  H 1.777948 2.000241 2.498726
  H 2.545830 -0.759658 -1.528236
  H 5.164359 -0.003399 -0.039240
  H 6.943400 -0.552228 -1.525905
 20
 73.000526
  C 0.890080 0.090465 0.205257
  C 2.437395 0.081478 0.428182
  C 3.211016 0.596361 1.628178
  C 2.360672 1.141718 2.785463
  H 3.021859 1.465036 3.599180
  C 3.122769 -0.400161 -0.663052
  C 4.527578 -0.379162 -0.838225
  C 5.091115 -0.806076 -2.003985
  H 4.482071 -1.169539 -2.819801
  O 6.371445 -0.861254 -2.269655
  H 1.470254 0.337441 1.128874
  H 0.514489 -0.890971 -0.016849
  H 0.410496 0.923928 -0.276000
  H 3.904163 1.389649 1.305182
  H 3.832763 -0.240016 1.990019
  H 1.691283 0.378554 3.194604
  H 1.769307 2.011063 2.482485
  H 2.550418 -0.781182 -1.495075
  H 5.161615 -0.013113 -0.046538
  H 6.939214 -0.541150 -1.544235
 20
 75.606540
  C 0.885336 0.092828 0.177920
  C 2.447421 0.065703 0.441754
  C 3.224126 0.593231 1.645764
  C 2.369700 1.150973 2.785056
  H 3.019444 1.477955 3.594656
  C 3.125498 -0.423998 -0.647238
  C 4.527475 -0.380271 -0.834570
  C 5.086770 -0.800918 -2.003341
  H 4.474438 -1.186209 -2.814263
  O 6.366506 -0.848769 -2.275284
  H 1.503271 0.286614 1.117870
  H 0.508295 -0.871481 -0.098614
  H 0.408775 0.966093 -0.226493
  H 3.913737 1.374706 1.320298
  H 3.829985 -0.232555 2.016152
  H 1.691003 0.391580 3.196423
  H 1.783537 2.020090 2.465030
  H 2.549600 -0.819464 -1.478735
  H 5.163261 0.006190 -0.048958
  H 6.934046 -0.512796 -1.556500
 20
 77.862283
  C 0.885803 0.095358 0.152205
  C 2.451207 0.063985 0.445275
  C 3.231263 0.600970 1.655194
  C 2.371952 1.154104 2.788979
  H 3.026070 1.492601 3.612021
  C 3.124680 -0.432689 -0.641008
  C 4.526917 -0.386057 -0.831025
  C 5.085198 -0.808654 -1.999965
  H 4.473179 -1.201038 -2.806423
  O 6.363704 -0.849282 -2.276851
  H 1.530949 0.244769 1.097818
  H 0.514641 -0.857652 -0.162586
  H 0.403443 0.995158 -0.182206
  H 3.915377 1.387682 1.328451
  H 3.838473 -0.220888 2.026782
  H 1.701526 0.396702 3.195465
  H 1.782363 2.014504 2.464148
  H 2.549533 -0.830661 -1.470191
  H 5.158324 0.008488 -0.056255
  H 6.930776 -0.495933 -1.564767
 20
 79.722802
  C 0.878986 0.106550 0.137187
  C 2.457018 0.060284 0.452450
  C 3.239485 0.605720 1.655076
  C 2.378851 1.159312 2.787898
  H 3.021305 1.500091 3.593159
  C 3.127163 -0.435706 -0.638119
  C 4.528695 -0.394814 -0.826166
  C 5.087302 -0.820702 -1.992377
  H 4.474701 -1.211731 -2.801561
  O 6.365872 -0.839009 -2.277835
  H 1.557784 0.205358 1.096719
  H 0.507452 -0.833405 -0.217496
  H 0.395565 1.022746 -0.129469
  H 3.915590 1.392685 1.321738
  H 3.852154 -0.213442 2.029019
  H 1.707438 0.393681 3.203631
  H 1.782492 2.016499 2.458766
  H 2.552679 -0.840886 -1.462096
  H 5.163443 0.004711 -0.048563
  H 6.930578 -0.476496 -1.569924
 20
 81.297381
  C 0.868568 0.111272 0.118101
  C 2.459483 0.051407 0.459745
  C 3.246785 0.609533 1.655410
  C 2.385061 1.166099 2.786039
  H 3.028544 1.518670 3.586955
  C 3.129839 -0.444468 -0.631771
  C 4.529198 -0.393046 -0.824992
  C 5.088122 -0.805557 -1.995746
  H 4.476244 -1.195676 -2.805173
  O 6.368311 -0.836955 -2.274345
  H 1.577733 0.161709 1.099790
  H 0.497332 -0.818105 -0.270917
  H 0.383796 1.036963 -0.086339
  H 3.917385 1.399820 1.312113
  H 3.865589 -0.206735 2.032896
  H 1.722578 0.403149 3.209090
  H 1.783950 2.013936 2.452097
  H 2.555277 -0.847075 -1.453221
  H 5.165639 0.001905 -0.045108
  H 6.934942 -0.493017 -1.558661
 20
 82.582985
  C 0.868100 0.124680 0.105765
  C 2.462749 0.049840 0.462494
  C 3.250639 0.616066 1.650001
  C 2.386184 1.167176 2.786072
  H 3.027838 1.528229 3.583520
  C 3.132355 -0.442362 -0.633774
  C 4.531401 -0.400167 -0.821865
  C 5.091244 -0.817722 -1.990214
  H 4.481730 -1.204836 -2.797150
  O 6.371694 -0.836503 -2.274250
  H 1.603970 0.122919 1.099980
  H 0.495581 -0.790103 -0.313134
  H 0.378193 1.058103 -0.033638
  H 3.912251 1.414005 1.300893
  H 3.877351 -0.194404 2.024013
  H 1.737832 0.403139 3.210286
  H 1.775550 2.004191 2.453175
  H 2.559565 -0.846165 -1.451241
  H 5.170607 -0.006237 -0.038566
  H 6.937296 -0.486151 -1.561258
