10

H 3.5871384552805647 -0.5980507168820315 -0.9860127352763952
C 4.656983 -0.60633 -1.002264
C 5.376683 -1.121859 -2.014333
C 6.815057 -1.131535 -2.033327
C 7.53475 -1.642902 -3.037234
H 8.60435772089467 -1.6560539883380474 -3.0630477290073244
H 5.162163 -0.171559 -0.148739
H 4.871399 -1.556641 -2.867885
H 7.321146 -0.696842 -1.179951
H 7.037578 -2.079507 -3.894343
