 22
 0.000000
  C 1.005452 0.117896 0.346028
  C 2.476794 0.129696 0.374549
  C 3.234720 0.603295 1.552003
  C 2.430299 1.085415 2.751939
  H 3.101431 1.402999 3.541670
  C 3.130627 -0.329392 -0.767924
  C 4.519786 -0.401235 -0.947537
  C 5.147815 -0.855343 -2.079958
  C 4.542655 -1.351445 -3.317527
  H 3.462713 -1.368132 -3.359913
  H 6.227954 -0.862765 -2.098420
  H 0.551902 0.484869 1.258854
  H 0.647404 -0.896378 0.162239
  H 0.647005 0.722483 -0.488644
  H 3.895538 1.415191 1.227720
  H 3.896016 -0.206752 1.879803
  H 1.797009 0.291413 3.142663
  H 1.796617 1.928710 2.484595
  H 2.500798 -0.656947 -1.582882
  H 5.148525 -0.073704 -0.131626
  H 4.926697 -2.358022 -3.502237
  H 4.927190 -0.751569 -4.146408
 22
 8.371697
  C 0.976031 0.165551 0.359822
  C 2.452195 0.147974 0.377930
  C 3.204619 0.602867 1.547971
  C 2.417583 1.040490 2.767671
  H 3.128569 1.326718 3.533988
  C 3.086252 -0.325377 -0.782171
  C 4.477532 -0.377094 -0.965964
  C 5.061623 -0.824954 -2.118911
  C 4.628328 -1.429442 -3.373241
  H 3.542516 -1.595968 -3.349106
  H 6.203523 -0.654876 -2.095079
  H 0.573671 0.565604 1.282019
  H 0.585912 -0.818461 0.130595
  H 0.668878 0.858484 -0.428103
  H 3.878539 1.406571 1.248149
  H 3.865186 -0.211343 1.885966
  H 1.856860 0.215431 3.183685
  H 1.795741 1.909557 2.596031
  H 2.441859 -0.652529 -1.585609
  H 5.107436 -0.005612 -0.163876
  H 5.085517 -2.413787 -3.505558
  H 4.955002 -0.859778 -4.247953
 22
 27.987554
  C 0.970400 0.128146 0.337095
  C 2.436469 0.135059 0.379169
  C 3.225117 0.613846 1.574509
  C 2.428242 1.089288 2.790729
  H 3.138029 1.410850 3.559059
  C 3.081846 -0.316247 -0.760908
  C 4.473032 -0.384025 -0.922989
  C 5.006314 -0.878494 -2.095446
  C 4.611701 -1.375310 -3.393862
  H 3.501063 -1.412947 -3.425512
  H 6.302417 -0.898062 -2.014613
  H 0.576696 0.500618 1.244628
  H 0.601478 -0.875560 0.174267
  H 0.597368 0.706428 -0.511303
  H 3.877325 1.431646 1.207556
  H 3.951619 -0.151664 1.866135
  H 1.867956 0.281272 3.247685
  H 1.758760 1.909905 2.539345
  H 2.494047 -0.645802 -1.592845
  H 5.136140 -0.085766 -0.131325
  H 4.975937 -2.379051 -3.567901
  H 4.959356 -0.734346 -4.205961
 22
 63.324489
  C 0.943869 0.163941 0.416633
  C 2.394286 0.171435 0.383329
  C 3.206916 0.603863 1.532642
  C 2.466308 1.073463 2.772330
  H 3.182051 1.354049 3.541149
  C 2.996418 -0.281001 -0.788531
  C 4.402040 -0.395523 -0.985477
  C 4.889471 -0.868997 -2.135365
  C 4.648615 -1.419217 -3.399040
  H 3.556712 -1.507657 -3.478305
  H 6.684373 -0.710445 -1.971722
  H 0.527751 0.509801 1.360788
  H 0.562682 -0.842293 0.200497
  H 0.541906 0.776776 -0.401615
  H 3.889706 1.395115 1.201784
  H 3.882047 -0.214126 1.809715
  H 1.829487 0.290636 3.176823
  H 1.846695 1.943281 2.558418
  H 2.351077 -0.622901 -1.586686
  H 5.067470 -0.144487 -0.171457
  H 5.076647 -2.416174 -3.521109
  H 5.005091 -0.789562 -4.216930
 22
 66.991172
  C 0.904020 0.182907 0.449437
  C 2.364770 0.139186 0.402271
  C 3.199079 0.577949 1.526853
  C 2.493689 1.080702 2.769642
  H 3.229011 1.366485 3.516774
  C 2.932324 -0.341070 -0.778409
  C 4.328870 -0.441714 -1.019432
  C 4.804913 -0.888833 -2.156043
  C 4.662187 -1.410742 -3.421045
  H 3.572461 -1.533241 -3.564933
  H 7.006312 -0.639209 -1.851294
  H 0.516372 0.561111 1.385621
  H 0.492201 -0.811344 0.256806
  H 0.520748 0.788604 -0.376843
  H 3.886754 1.356624 1.165809
  H 3.872664 -0.245967 1.804152
  H 1.857332 0.313764 3.203805
  H 1.880713 1.953430 2.554423
  H 2.267329 -0.653587 -1.570294
  H 5.006750 -0.131467 -0.239363
  H 5.118771 -2.396424 -3.547122
  H 5.036405 -0.756305 -4.210951
 22
 65.105447
  C 0.865475 0.144696 0.522132
  C 2.321727 0.107501 0.418431
  C 3.198942 0.575288 1.499106
  C 2.540778 1.143382 2.740259
  H 3.303702 1.463778 3.446532
  C 2.843190 -0.388077 -0.769919
  C 4.225392 -0.506558 -1.054814
  C 4.706598 -0.905853 -2.195356
  C 4.710618 -1.340388 -3.490027
  H 3.643912 -1.412867 -3.780483
  H 7.205839 -0.787222 -1.551406
  H 0.512003 0.553052 1.463408
  H 0.453760 -0.859956 0.382620
  H 0.442184 0.718875 -0.307625
  H 3.891161 1.323237 1.085162
  H 3.865143 -0.249374 1.792305
  H 1.917697 0.400912 3.235518
  H 1.920510 2.006897 2.502592
  H 2.151292 -0.698394 -1.541752
  H 4.926928 -0.233106 -0.280892
  H 5.148977 -2.334329 -3.625873
  H 5.188934 -0.646776 -4.189291
 22
 64.080683
  C 0.859180 0.166121 0.535968
  C 2.315086 0.119526 0.422651
  C 3.200808 0.569727 1.502160
  C 2.554239 1.118598 2.757563
  H 3.322646 1.423117 3.462458
  C 2.822120 -0.371678 -0.778055
  C 4.204705 -0.502939 -1.081319
  C 4.676094 -0.907191 -2.223171
  C 4.719754 -1.350037 -3.510230
  H 3.658523 -1.434040 -3.822415
  H 7.239817 -0.751272 -1.504662
  H 0.518038 0.564454 1.484513
  H 0.443297 -0.835752 0.384113
  H 0.439846 0.756373 -0.285884
  H 3.891209 1.322875 1.094769
  H 3.870174 -0.259397 1.775599
  H 1.931993 0.371092 3.244057
  H 1.937171 1.987848 2.539921
  H 2.120537 -0.670638 -1.544480
  H 4.922084 -0.238515 -0.317113
  H 5.164464 -2.344368 -3.628927
  H 5.202018 -0.655335 -4.205947
 22
 58.614712
  C 0.784302 0.247749 0.636690
  C 2.222873 0.158123 0.396764
  C 3.216358 0.558871 1.399563
  C 2.706967 1.042237 2.741516
  H 3.546867 1.294637 3.382802
  C 2.622876 -0.332793 -0.846394
  C 3.970544 -0.511400 -1.239533
  C 4.481596 -0.961483 -2.337900
  C 4.847293 -1.455268 -3.546456
  H 3.892668 -1.654313 -4.079478
  H 7.172248 -0.345792 -0.804780
  H 0.537152 0.628017 1.619751
  H 0.319305 -0.731425 0.493904
  H 0.317984 0.874524 -0.128489
  H 3.859039 1.336712 0.959323
  H 3.914904 -0.276174 1.557633
  H 2.120138 0.274669 3.242619
  H 2.087082 1.930651 2.636366
  H 1.863491 -0.600237 -1.568730
  H 4.757078 -0.239855 -0.533152
  H 5.377979 -2.413842 -3.502488
  H 5.395058 -0.745043 -4.177961
 22
 45.375805
  C 0.665541 0.332455 0.647171
  C 2.093058 0.140743 0.418272
  C 3.102787 0.413074 1.450979
  C 2.620267 0.954379 2.783164
  H 3.470107 1.116617 3.442494
  C 2.467170 -0.328133 -0.841381
  C 3.799682 -0.558550 -1.262466
  C 4.282497 -0.983915 -2.385248
  C 4.824906 -1.412982 -3.545988
  H 4.069666 -1.995937 -4.110403
  H 9.112959 0.187582 -1.248033
  H 0.433218 0.704354 1.634206
  H 0.129088 -0.604530 0.475213
  H 0.250038 1.009445 -0.103946
  H 3.854112 1.104157 1.042085
  H 3.672907 -0.510808 1.634945
  H 1.943619 0.259500 3.278246
  H 2.104514 1.905399 2.664136
  H 1.689434 -0.533619 -1.567375
  H 4.608832 -0.354309 -0.542572
  H 5.618903 -2.159667 -3.375029
  H 5.200497 -0.606686 -4.186898
