 16
 0.000000
  C 1.009742 0.138780 0.396180
  C 2.473065 0.131958 0.379739
  C 3.220534 0.601561 1.548201
  H 2.553600 0.921576 2.344653
  C 3.113026 -0.333172 -0.777781
  C 4.507624 -0.400327 -0.946470
  C 5.101386 -0.855363 -2.081258
  H 4.542125 -1.198569 -2.936270
  H 6.175975 -0.881882 -2.148644
  H 0.603613 0.513675 1.328902
  H 0.623820 -0.867461 0.208315
  H 0.624029 0.735477 -0.435674
  H 3.883535 1.426416 1.280369
  H 3.883680 -0.179153 1.925696
  H 2.473827 -0.658978 -1.588440
  H 5.141922 -0.074334 -0.134800
 16
 -0.012343
  C 1.012124 0.175480 0.369665
  C 2.474783 0.142607 0.377578
  C 3.210231 0.548878 1.576965
  H 2.543610 0.805595 2.393875
  C 3.129983 -0.308078 -0.772909
  C 4.525619 -0.371444 -0.941501
  C 5.092307 -0.862971 -2.075656
  H 4.493995 -1.312318 -2.851516
  H 6.155461 -0.812339 -2.234186
  H 0.599571 0.697115 1.227151
  H 0.629524 -0.850400 0.374378
  H 0.630973 0.604115 -0.558242
  H 3.846403 1.409493 1.357732
  H 3.894958 -0.237261 1.899618
  H 2.516603 -0.598997 -1.616376
  H 5.166975 -0.001053 -0.154301
 16
 2.696989
  C 1.005897 0.236013 0.352470
  C 2.466555 0.138201 0.358152
  C 3.198923 0.455898 1.590275
  H 2.526412 0.679888 2.412333
  C 3.117869 -0.300630 -0.798189
  C 4.510374 -0.365867 -0.962407
  C 5.122333 -0.853235 -2.076860
  H 4.650038 -1.579038 -2.720180
  H 6.115455 -0.540456 -2.353933
  H 0.646325 0.985506 1.053387
  H 0.592631 -0.721336 0.689238
  H 0.604336 0.408614 -0.643420
  H 3.850146 1.317670 1.430942
  H 3.858444 -0.364846 1.875157
  H 2.508154 -0.518689 -1.665228
  H 5.136984 0.043074 -0.177792
 16
 12.457676
  C 1.005559 0.299608 0.341386
  C 2.461805 0.127811 0.350670
  C 3.198325 0.414123 1.591439
  H 2.528246 0.693766 2.398485
  C 3.097381 -0.325813 -0.800988
  C 4.474776 -0.383981 -0.972302
  C 5.148952 -0.841422 -2.080120
  H 5.001447 -1.832694 -2.480705
  H 5.890743 -0.229037 -2.571267
  H 0.695007 1.112843 0.994255
  H 0.547650 -0.607147 0.749522
  H 0.606941 0.435350 -0.660420
  H 3.904749 1.230811 1.432790
  H 3.789014 -0.447603 1.902119
  H 2.481705 -0.551934 -1.660295
  H 5.094794 0.026367 -0.172368
 16
 26.018026
  C 1.011993 0.345493 0.315853
  C 2.457057 0.124768 0.354844
  C 3.183410 0.390206 1.604228
  H 2.515306 0.708504 2.396541
  C 3.100306 -0.339337 -0.798035
  C 4.459224 -0.407253 -0.952350
  C 5.159548 -0.854506 -2.086073
  H 5.386977 -1.896262 -2.241994
  H 5.545024 -0.152674 -2.807954
  H 0.707576 1.156073 0.975215
  H 0.524739 -0.556533 0.694602
  H 0.639184 0.506659 -0.692913
  H 3.925682 1.174306 1.444931
  H 3.734405 -0.489855 1.934700
  H 2.483893 -0.597847 -1.646017
  H 5.079748 -0.053547 -0.126852
 16
 18.669198
  C 1.007371 0.352034 0.298717
  C 2.461116 0.163873 0.332808
  C 3.175347 0.415785 1.593733
  H 2.493514 0.694970 2.390256
  C 3.109718 -0.269699 -0.820759
  C 4.475210 -0.454340 -0.932599
  C 5.157806 -0.881996 -2.060623
  H 5.677933 -1.828781 -2.075931
  H 5.242996 -0.270162 -2.946641
  H 0.689068 1.145622 0.969434
  H 0.535332 -0.566652 0.660314
  H 0.632135 0.527036 -0.706031
  H 3.899199 1.222321 1.467306
  H 3.741252 -0.463195 1.901061
  H 2.502510 -0.510620 -1.681530
  H 5.086663 -0.265441 -0.048248
 16
 12.870703
  C 1.019916 0.322817 0.246414
  C 2.475457 0.196618 0.341977
  C 3.151363 0.496431 1.611424
  H 2.449120 0.759542 2.393190
  C 3.192716 -0.186643 -0.781265
  C 4.568182 -0.442339 -0.849993
  C 5.042438 -0.917279 -2.056766
  H 5.721604 -1.776194 -2.127576
  H 4.857510 -0.383526 -2.966994
  H 0.602184 0.991679 1.002014
  H 0.597165 -0.662372 0.449041
  H 0.689366 0.595203 -0.754746
  H 3.878022 1.307407 1.484745
  H 3.720250 -0.366315 1.938436
  H 2.686258 -0.504807 -1.676255
  H 5.203931 -0.435523 0.044715
 16
 33.629570
  C 1.042275 0.208465 0.192280
  C 2.521649 0.205486 0.310173
  C 3.133379 0.555579 1.633278
  H 2.363683 0.788829 2.361666
  C 3.322843 -0.162938 -0.737261
  C 4.699186 -0.390802 -0.759628
  C 4.858510 -0.906867 -2.077850
  H 5.231185 -1.868153 -2.223971
  H 4.812904 -0.276213 -2.903079
  H 0.583651 0.807274 0.952690
  H 0.647549 -0.790897 0.384341
  H 0.694726 0.475146 -0.769509
  H 3.828720 1.423697 1.528377
  H 3.753294 -0.275386 2.018244
  H 2.922560 -0.445343 -1.723970
  H 5.414975 -0.367042 0.054926
 16
 48.504884
  C 1.152798 0.068595 0.087770
  C 2.605674 0.189624 0.343268
  C 3.115037 0.551118 1.690797
  H 2.292412 0.688810 2.384427
  C 3.535875 -0.038434 -0.640768
  C 4.889353 -0.204288 -0.744639
  C 4.519887 -0.841812 -1.984283
  H 4.606532 -1.919814 -2.096072
  H 4.465836 -0.273000 -2.906565
  H 0.582772 0.644002 0.811563
  H 0.841870 -0.974182 0.190411
  H 0.882910 0.389867 -0.915865
  H 3.694511 1.473149 1.648281
  H 3.781122 -0.220339 2.074983
  H 3.117373 -0.371831 -1.667570
  H 5.734846 -0.207850 -0.099340
 16
 39.433160
  C 1.240651 -0.000107 0.048626
  C 2.666619 0.164945 0.423900
  C 3.047721 0.609610 1.796014
  H 2.162086 0.679972 2.420407
  C 3.704207 -0.082521 -0.409028
  C 4.967997 -0.247358 -0.769076
  C 4.258061 -0.715655 -2.012131
  H 4.355107 -1.774898 -2.225533
  H 4.363535 -0.048438 -2.870414
  H 0.605357 0.630898 0.670191
  H 0.926142 -1.035804 0.214654
  H 1.058216 0.236764 -0.995426
  H 3.529888 1.584045 1.764430
  H 3.757564 -0.082758 2.251766
  H 3.163518 -0.529030 -1.711374
  H 5.962359 -0.279042 -0.407423
 16
 31.567693
  C 1.253548 0.169028 0.049134
  C 2.665506 0.245685 0.487864
  C 2.996660 0.487075 1.924744
  H 2.085172 0.506286 2.511064
  C 3.712914 0.035798 -0.312248
  C 4.847213 -0.060823 -0.943668
  C 4.289901 -0.920072 -2.064009
  H 4.711265 -1.916838 -2.093001
  H 4.344460 -0.384772 -3.011556
  H 0.602237 0.706220 0.733952
  H 0.942475 -0.878662 0.051981
  H 1.112191 0.549009 -0.959426
  H 3.509081 1.445697 2.022399
  H 3.664002 -0.276238 2.321495
  H 3.215681 -0.984219 -1.846263
  H 5.862366 0.196762 -0.763588
 16
 14.909325
  C 1.314286 0.283249 0.055889
  C 2.693739 0.272569 0.593510
  C 2.913851 0.419640 2.055330
  H 1.966665 0.423748 2.586046
  C 3.745762 0.088375 -0.202822
  C 4.688999 -0.025073 -1.093718
  C 4.328815 -1.035212 -2.141795
  H 5.020039 -1.873010 -2.148538
  H 4.305055 -0.547363 -3.113664
  H 0.643855 0.814822 0.725353
  H 0.960243 -0.746980 -0.018287
  H 1.272300 0.715758 -0.941992
  H 3.435648 1.354891 2.257802
  H 3.550435 -0.378916 2.434497
  H 3.310868 -1.357401 -1.920042
  H 5.648077 0.464771 -1.096337
 16
 8.913412
  C 1.184523 0.515358 0.191255
  C 2.584937 0.290342 0.609906
  C 2.933612 0.249237 2.046775
  H 2.042537 0.278016 2.665869
  C 3.537122 0.111587 -0.311235
  C 4.463541 -0.054971 -1.195510
  C 4.520721 -1.132788 -2.219870
  H 5.365892 -1.780063 -1.990019
  H 4.695707 -0.703329 -3.203728
  H 0.595610 0.918355 1.009783
  H 0.730323 -0.430820 -0.112946
  H 1.139208 1.167584 -0.678793
  H 3.569118 1.096824 2.309654
  H 3.522509 -0.641536 2.265768
  H 3.600750 -1.708428 -2.232891
  H 5.304066 0.637492 -1.213322
 16
 9.082887
  C 1.146410 0.435125 0.219992
  C 2.568168 0.300540 0.606498
  C 2.971022 0.371234 2.027074
  H 2.118261 0.554466 2.671785
  C 3.494116 0.116971 -0.341545
  C 4.393602 -0.053148 -1.251557
  C 4.553645 -1.201565 -2.183646
  H 5.402134 -1.792891 -1.840375
  H 4.790788 -0.846313 -3.183271
  H 0.500343 0.457708 1.091135
  H 0.833753 -0.367908 -0.447705
  H 1.023798 1.358840 -0.350088
  H 3.720248 1.147972 2.186735
  H 3.454948 -0.565879 2.310401
  H 3.663446 -1.821474 -2.212993
  H 5.155492 0.719182 -1.361743
 16
 9.466352
  C 1.132017 0.384452 0.252979
  C 2.565952 0.291371 0.602223
  C 3.000742 0.422710 2.009312
  H 2.153672 0.577042 2.671579
  C 3.469158 0.096994 -0.364271
  C 4.364232 -0.053209 -1.282971
  C 4.568384 -1.210402 -2.196159
  H 5.131452 -1.969852 -1.650403
  H 5.145278 -0.922212 -3.067587
  H 0.501774 0.236351 1.125299
  H 0.854371 -0.312651 -0.535011
  H 0.947280 1.385576 -0.145692
  H 3.704831 1.246829 2.126631
  H 3.546231 -0.475002 2.305700
  H 3.619135 -1.642520 -2.503648
  H 5.085666 0.757382 -1.407283
