 17
 0.000000
  H 1.506005 0.162775 0.453424
  C 2.588061 0.155878 0.437459
  C 3.263864 0.639407 1.642319
  C 2.316657 1.082678 2.745892
  H 2.874735 1.429379 3.611343
  C 3.199562 -0.304987 -0.709269
  C 4.585759 -0.380739 -0.897288
  C 5.129084 -0.855254 -2.078760
  H 4.477278 -1.180005 -2.884210
  O 6.385880 -0.964757 -2.353996
  H 3.933760 1.467465 1.377096
  H 3.933079 -0.142759 2.023391
  H 1.676831 0.262240 3.062337
  H 1.677860 1.895109 2.407427
  H 2.569260 -0.631858 -1.524445
  H 5.244109 -0.061574 -0.101275
  H 6.999663 -0.677257 -1.644649
 17
 0.953248
  H 1.520147 0.360531 0.369410
  C 2.586080 0.172025 0.424541
  C 3.269233 0.645066 1.629532
  C 2.327183 1.083592 2.741059
  H 2.890244 1.462962 3.589100
  C 3.182862 -0.412148 -0.671189
  C 4.570100 -0.501807 -0.853749
  C 5.121537 -0.814144 -2.081461
  H 4.483670 -1.031137 -2.932289
  O 6.380351 -0.862722 -2.359863
  H 3.910216 1.494101 1.356656
  H 3.960259 -0.121426 2.000723
  H 1.722275 0.247812 3.083379
  H 1.654780 1.868744 2.400519
  H 2.549958 -0.748275 -1.478380
  H 5.228857 -0.286467 -0.022238
  H 6.986092 -0.655206 -1.614847
 17
 5.723653
  H 1.616221 0.541157 0.279720
  C 2.629712 0.233919 0.391473
  C 3.297873 0.682663 1.630593
  C 2.323606 1.076704 2.723274
  H 2.865264 1.426703 3.599644
  C 3.155857 -0.519782 -0.623278
  C 4.559762 -0.577234 -0.834303
  C 5.095057 -0.775004 -2.072435
  H 4.455475 -0.870198 -2.955089
  O 6.371675 -0.809491 -2.355816
  H 3.932209 1.585290 1.387914
  H 3.967399 -0.077403 1.993709
  H 1.733103 0.187323 2.997961
  H 1.650025 1.845402 2.422152
  H 2.504549 -0.884510 -1.401024
  H 5.233810 -0.456668 -0.018465
  H 6.957007 -0.709176 -1.589868
 17
 7.371776
  H 1.723183 0.822731 0.163148
  C 2.691740 0.373723 0.357834
  C 3.327903 0.780500 1.618862
  C 2.301307 0.977744 2.732430
  H 2.797599 1.301442 3.642201
  C 3.171940 -0.497575 -0.587368
  C 4.559850 -0.636724 -0.806010
  C 5.078289 -0.814203 -2.078569
  H 4.427473 -0.867292 -2.951002
  O 6.334042 -0.885297 -2.378671
  H 3.808010 1.754026 1.465805
  H 4.102930 0.070957 1.930579
  H 1.781953 0.049145 2.940135
  H 1.566663 1.730634 2.455046
  H 2.498919 -0.862829 -1.354649
  H 5.246387 -0.548040 0.023941
  H 6.949757 -0.854683 -1.611430
 17
 15.877771
  H 1.867953 0.855523 0.131079
  C 2.775306 0.312822 0.374984
  C 3.364077 0.691125 1.663778
  C 2.270069 1.060161 2.674035
  H 2.725066 1.337912 3.616266
  C 3.177543 -0.658883 -0.512445
  C 4.569623 -0.665762 -0.795131
  C 5.042212 -0.689048 -2.086833
  H 4.364779 -0.624621 -2.930226
  O 6.290250 -0.710263 -2.436400
  H 3.994966 1.574492 1.532725
  H 3.982055 -0.118092 2.069079
  H 1.617622 0.212113 2.856687
  H 1.669680 1.890365 2.313144
  H 2.491027 -1.028057 -1.253110
  H 5.270737 -0.755595 0.020764
  H 6.925434 -0.798347 -1.697257
 17
 31.691329
  H 2.158322 0.971453 -0.020756
  C 2.907259 0.242819 0.312980
  C 3.463143 0.595101 1.636033
  C 2.333722 1.088253 2.546047
  H 2.734145 1.312631 3.525791
  C 3.053249 -0.889592 -0.442822
  C 4.458430 -0.773158 -0.721057
  C 4.938136 -0.537726 -1.983290
  H 4.272721 -0.343274 -2.813498
  O 6.200099 -0.488713 -2.315929
  H 4.198019 1.401965 1.541857
  H 3.953715 -0.265395 2.088422
  H 1.576920 0.319995 2.666077
  H 1.860128 1.987631 2.141639
  H 2.326485 -1.252300 -1.149448
  H 5.176493 -0.881894 0.080775
  H 6.826315 -0.612044 -1.576593
 17
 40.499258
  H 2.376858 0.958795 -0.150431
  C 3.007701 0.156774 0.245221
  C 3.538786 0.487466 1.603133
  C 2.414573 1.110614 2.437133
  H 2.791454 1.349043 3.427192
  C 2.952061 -1.060708 -0.422032
  C 4.353507 -0.722666 -0.612042
  C 4.842023 -0.367453 -1.862716
  H 4.170219 -0.137195 -2.681393
  O 6.095495 -0.305294 -2.195701
  H 4.348690 1.215297 1.528103
  H 3.907613 -0.407407 2.102697
  H 1.583589 0.418537 2.545677
  H 2.047412 2.028071 1.985774
  H 2.256212 -1.402036 -1.162686
  H 5.055221 -0.939218 0.183370
  H 6.731715 -0.516851 -1.483201
 17
 39.531170
  H 2.501961 0.828093 -0.217536
  C 3.063444 0.014152 0.243562
  C 3.522850 0.355883 1.642577
  C 2.469605 1.209756 2.348092
  H 2.801618 1.440479 3.356374
  C 2.986492 -1.249804 -0.374984
  C 4.343475 -0.704657 -0.548937
  C 4.758972 -0.226145 -1.798155
  H 4.025260 0.052733 -2.549130
  O 5.972383 -0.095104 -2.195266
  H 4.455460 0.919110 1.607542
  H 3.684843 -0.559925 2.211557
  H 1.523198 0.680214 2.417608
  H 2.305749 2.146613 1.821832
  H 2.332723 -1.630183 -1.131997
  H 5.098400 -0.979060 0.179225
  H 6.670938 -0.347705 -1.554147
 17
 38.205670
  H 2.687676 0.956260 -0.239340
  C 3.189600 0.111037 0.231224
  C 3.530308 0.388015 1.682991
  C 2.416312 1.197280 2.338841
  H 2.649020 1.357281 3.388746
  C 2.995568 -1.170157 -0.334425
  C 4.375554 -0.645331 -0.532135
  C 4.762586 -0.245023 -1.823694
  H 4.011500 0.101096 -2.528642
  O 5.944510 -0.268241 -2.304348
  H 4.461303 0.951790 1.743167
  H 3.657601 -0.554311 2.216637
  H 1.467447 0.670145 2.278697
  H 2.304497 2.167870 1.865044
  H 2.306940 -1.610719 -1.020150
  H 5.143989 -0.993579 0.149341
  H 6.661491 -0.579724 -1.709706
 17
 38.155709
  H 2.773494 1.024479 -0.251787
  C 3.267425 0.180133 0.233951
  C 3.554786 0.471157 1.693400
  C 2.340652 1.127219 2.342192
  H 2.524201 1.268147 3.403522
  C 3.057667 -1.115242 -0.289389
  C 4.433858 -0.576854 -0.508187
  C 4.759290 -0.260147 -1.843956
  H 3.989109 0.127700 -2.504047
  O 5.887335 -0.424946 -2.414562
  H 4.408848 1.140723 1.769950
  H 3.790322 -0.456503 2.216417
  H 1.457230 0.504601 2.230169
  H 2.136986 2.098765 1.901629
  H 2.365532 -1.642610 -0.902337
  H 5.226047 -0.932664 0.139087
  H 6.621555 -0.772509 -1.862127
 17
 37.636779
  H 2.800134 1.063472 -0.278991
  C 3.263748 0.210455 0.220452
  C 3.583535 0.517677 1.669742
  C 2.343837 1.085618 2.355578
  H 2.546856 1.231138 3.413008
  C 3.001514 -1.080873 -0.291766
  C 4.401379 -0.616662 -0.519036
  C 4.766603 -0.293678 -1.840948
  H 4.014827 0.086359 -2.528530
  O 5.919268 -0.435538 -2.368487
  H 4.391075 1.248248 1.719081
  H 3.899053 -0.390422 2.182530
  H 1.503122 0.403306 2.260421
  H 2.063373 2.044802 1.928224
  H 2.287010 -1.552225 -0.927457
  H 5.171752 -0.985727 0.149330
  H 6.637254 -0.774501 -1.789228
