14

H 1.3859317928625645 -0.011262566641412054 -7.276404099593875e-05
C 2.45583 -0.000652 0.010186
C 3.169662 0.812807 0.796393
C 4.607614 0.828802 0.81185
C 5.32678 1.645907 1.60159
C 6.765709 1.660082 1.615284
C 7.482825 2.471533 2.399549
H 8.552414511308434 2.4928419746275257 2.4201452350760184
H 2.954001 -0.691315 -0.657348
H 2.657309 1.501021 1.461557
H 5.112305 0.139901 0.14603
H 4.822653 2.334984 2.267579
H 7.273019 0.972 0.950253
H 6.984074 3.162706 3.067572
