 20
 0.000000
  H 1.517148 0.143344 0.406478
  C 2.599423 0.135048 0.386890
  C 3.286367 0.618155 1.589590
  C 2.338791 1.061831 2.693324
  H 2.898982 1.409507 3.559575
  C 3.201716 -0.327211 -0.763668
  C 4.584590 -0.404625 -0.956279
  C 5.216280 -0.869119 -2.114297
  C 4.527508 -1.354192 -3.323910
  H 3.448410 -1.322440 -3.245711
  O 6.522853 -0.901711 -2.196809
  H 3.949456 1.447851 1.321559
  H 3.949108 -0.166595 1.970219
  H 1.700102 0.240718 3.009940
  H 1.700723 1.874236 2.353854
  H 2.549940 -0.647840 -1.563022
  H 5.222434 -0.079903 -0.145530
  H 4.852457 -2.372685 -3.533855
  H 4.852997 -0.763364 -4.179396
  H 7.005711 -0.582877 -1.406415
 20
 12.687925
  H 1.538573 0.169669 0.472843
  C 2.620097 0.102635 0.307100
  C 3.389148 0.575222 1.482778
  C 2.482303 1.036771 2.630287
  H 3.082686 1.374916 3.472772
  C 3.002300 -0.379478 -0.891939
  C 4.341897 -0.389203 -0.917699
  C 5.137724 -0.830971 -2.020149
  C 4.580306 -1.341336 -3.292966
  H 3.502994 -1.348800 -3.313233
  O 6.436964 -0.805445 -1.958813
  H 4.043693 1.412146 1.202292
  H 4.043355 -0.223168 1.859782
  H 1.845249 0.226482 2.974050
  H 1.846133 1.860291 2.317653
  H 2.321785 -0.689743 -1.664156
  H 4.921443 -0.047554 -0.065491
  H 4.958896 -2.347881 -3.471749
  H 4.960031 -0.738054 -4.117682
  H 6.817694 -0.472114 -1.128057
 20
 44.815284
  H 1.604531 0.197585 0.537334
  C 2.668056 0.087305 0.266950
  C 3.452613 0.555294 1.435525
  C 2.560286 1.013028 2.572129
  H 3.170129 1.347063 3.407973
  C 2.867941 -0.409389 -0.968885
  C 4.179380 -0.372286 -0.876838
  C 5.099556 -0.815431 -1.983068
  C 4.620425 -1.331851 -3.265919
  H 3.542529 -1.357923 -3.329006
  O 6.391742 -0.757773 -1.846039
  H 4.095634 1.395489 1.165571
  H 4.093229 -0.239920 1.821866
  H 1.922516 0.202109 2.920788
  H 1.925950 1.842413 2.262737
  H 2.157207 -0.705614 -1.709627
  H 4.752896 -0.034044 -0.028441
  H 5.024513 -2.331611 -3.426723
  H 5.023876 -0.722017 -4.074569
  H 6.713754 -0.418162 -1.004666
 20
 86.413169
  H 1.661601 0.208417 0.559039
  C 2.719855 0.070135 0.225228
  C 3.494127 0.545365 1.415443
  C 2.593477 1.006053 2.551500
  H 3.204446 1.338824 3.388080
  C 2.781950 -0.439368 -1.036411
  C 4.077554 -0.355398 -0.834839
  C 5.082736 -0.806535 -1.964011
  C 4.637566 -1.326032 -3.252546
  H 3.562556 -1.360916 -3.333776
  O 6.366675 -0.729126 -1.781218
  H 4.135822 1.390118 1.148606
  H 4.128090 -0.254298 1.809312
  H 1.952334 0.194853 2.901709
  H 1.960766 1.839765 2.241194
  H 2.058565 -0.724008 -1.747581
  H 4.705610 -0.039317 -0.036284
  H 5.052344 -2.323309 -3.405662
  H 5.049433 -0.711957 -4.054785
  H 6.659558 -0.381840 -0.921921
 20
 127.704903
  H 1.699935 0.219697 0.570827
  C 2.760471 0.046383 0.228532
  C 3.512556 0.542303 1.438191
  C 2.594446 1.035133 2.548588
  H 3.195113 1.377375 3.389791
  C 2.734752 -0.504524 -1.051239
  C 4.011566 -0.380208 -0.753768
  C 5.104767 -0.811503 -1.972518
  C 4.656711 -1.312466 -3.297171
  H 3.576991 -1.359898 -3.372257
  O 6.373880 -0.712117 -1.768672
  H 4.167401 1.372867 1.161332
  H 4.128176 -0.258340 1.852967
  H 1.945276 0.248388 2.899942
  H 1.984091 1.860399 2.216130
  H 1.989030 -0.785633 -1.768361
  H 4.713930 -0.090782 -0.007263
  H 5.080909 -2.299292 -3.480862
  H 5.051437 -0.673161 -4.085859
  H 6.638732 -0.377310 -0.885773
 20
 159.233183
  H 1.698005 0.254613 0.570331
  C 2.762932 0.032447 0.261786
  C 3.504576 0.543775 1.491286
  C 2.573799 1.077405 2.571271
  H 3.161666 1.424883 3.412275
  C 2.703835 -0.571721 -1.035562
  C 3.949140 -0.394465 -0.672797
  C 5.151084 -0.832705 -2.043403
  C 4.691928 -1.298816 -3.352461
  H 3.608592 -1.348565 -3.400160
  O 6.429520 -0.724466 -1.849982
  H 4.180727 1.352463 1.199770
  H 4.100159 -0.264018 1.926275
  H 1.899478 0.306058 2.929790
  H 1.983479 1.912007 2.206875
  H 1.973848 -0.849862 -1.739019
  H 4.718790 -0.148248 0.025340
  H 5.114464 -2.277818 -3.563795
  H 5.063818 -0.639657 -4.132925
  H 6.688444 -0.410440 -0.961006
 20
 170.153678
  H 1.658970 0.323077 0.672701
  C 2.707395 0.100823 0.475314
  C 3.414847 0.573806 1.740226
  C 2.429717 1.162616 2.742231
  H 2.969076 1.530886 3.610437
  C 2.708418 -0.567818 -0.935895
  C 3.880068 -0.343968 -0.521150
  C 5.329250 -0.921143 -2.303393
  C 4.813253 -1.385196 -3.610981
  H 3.730229 -1.412263 -3.613494
  O 6.628529 -0.865971 -2.239494
  H 4.080398 1.396940 1.455027
  H 3.982622 -0.230647 2.214296
  H 1.713098 0.416735 3.080113
  H 1.878164 1.992156 2.307252
  H 1.981707 -0.856193 -1.655375
  H 4.744512 -0.112327 0.046111
  H 5.205964 -2.374312 -3.835479
  H 5.167366 -0.733215 -4.409966
  H 6.968521 -0.530193 -1.388657
 20
 165.659605
  H 1.608613 0.413668 0.654578
  C 2.652440 0.120997 0.586035
  C 3.342042 0.586366 1.857284
  C 2.363689 1.247178 2.820000
  H 2.898502 1.598803 3.697320
  C 2.685805 -0.639512 -0.835845
  C 3.822186 -0.339517 -0.384408
  C 5.429997 -0.984234 -2.429008
  C 4.884728 -1.409448 -3.750506
  H 3.800980 -1.429442 -3.738552
  O 6.744353 -0.933340 -2.453666
  H 4.083179 1.342881 1.579553
  H 3.858968 -0.235700 2.362981
  H 1.596590 0.551104 3.150515
  H 1.875969 2.100502 2.356373
  H 1.962622 -0.939164 -1.553431
  H 4.740916 -0.145613 0.114606
  H 5.265725 -2.397877 -4.013605
  H 5.235568 -0.733574 -4.530884
  H 7.128870 -0.559198 -1.639004
 20
 160.795852
  H 1.641125 0.478902 0.615232
  C 2.671770 0.152040 0.656056
  C 3.302408 0.602143 1.961653
  C 2.292166 1.297495 2.865677
  H 2.788517 1.625505 3.774532
  C 2.732631 -0.703748 -0.805820
  C 3.803736 -0.299822 -0.273754
  C 5.487854 -0.979182 -2.519987
  C 4.888034 -1.414329 -3.817565
  H 3.805726 -1.435149 -3.763004
  O 6.800831 -0.941472 -2.612709
  H 4.100459 1.312034 1.729354
  H 3.752697 -0.241022 2.497461
  H 1.482971 0.630098 3.147776
  H 1.868131 2.171942 2.380348
  H 2.037650 -1.051778 -1.528809
  H 4.802569 -0.156124 0.076263
  H 5.260314 -2.402718 -4.090538
  H 5.206333 -0.739678 -4.613006
  H 7.230724 -0.602285 -1.802620
 20
 119.130323
  H 2.100935 0.773289 0.099014
  C 2.806633 0.084382 0.539647
  C 3.130773 0.349966 1.998454
  C 2.264941 1.466671 2.574495
  H 2.539929 1.658143 3.608348
  C 2.955559 -1.183393 -0.277948
  C 4.045027 -0.438704 -0.201551
  C 5.595160 -0.755028 -2.560555
  C 4.656920 -1.155924 -3.590530
  H 3.637346 -1.172686 -3.226675
  O 6.828342 -0.652551 -2.822313
  H 4.172416 0.661925 2.084949
  H 3.026993 -0.560293 2.593107
  H 1.213120 1.198683 2.545715
  H 2.401918 2.386386 2.015074
  H 2.333955 -1.784734 -0.868922
  H 5.099610 -0.466646 -0.118766
  H 4.936436 -2.146493 -3.956986
  H 4.738241 -0.479100 -4.443056
  H 7.423429 -0.400037 -2.081764
