 13
 0.000000
  C 1.112384 0.033384 0.059024
  C 2.608841 0.045797 0.033617
  C 3.321215 0.540385 -0.979151
  C 4.763537 0.552664 -1.004297
  C 5.473593 1.045634 -2.013734
  H 6.548230 1.051101 -2.024939
  H 0.750951 -0.416995 0.981269
  H 0.716478 -0.544340 -0.774931
  H 0.716479 1.046291 0.001859
  H 3.111603 -0.374297 0.893829
  H 2.809622 0.958893 -1.836131
  H 5.268845 0.132606 -0.144152
  H 4.974878 1.465397 -2.873287
 13
 13.357731
  C 0.974224 0.017235 0.092093
  C 2.649396 0.023566 0.079136
  C 3.385386 0.553987 -1.007010
  C 4.819493 0.568064 -1.035834
  C 5.525017 1.061029 -2.045264
  H 6.600487 1.063280 -2.049865
  H 0.632600 -0.433609 1.015294
  H 0.615190 -0.556900 -0.753868
  H 0.615191 1.037403 0.024713
  H 3.141537 -0.395336 0.936911
  H 2.856548 0.966605 -1.851926
  H 5.325422 0.148236 -0.176160
  H 5.036793 1.482764 -2.908844
 13
 40.501153
  C 0.812878 0.012294 0.102243
  C 2.724892 0.000630 0.126108
  C 3.430220 0.550828 -1.000522
  C 4.874394 0.577045 -1.054214
  C 5.561292 1.077502 -2.079012
  H 6.642023 1.085119 -2.094609
  H 0.525837 -0.439396 1.027189
  H 0.549061 -0.563844 -0.761838
  H 0.549097 1.047888 0.025309
  H 3.168597 -0.420367 0.988178
  H 2.865191 0.949338 -1.816540
  H 5.397993 0.161205 -0.202702
  H 5.065337 1.496988 -2.937966
 13
 69.993622
  C 0.639681 0.010975 0.104859
  C 2.830803 -0.008296 0.144342
  C 3.500061 0.541079 -0.980583
  C 4.930010 0.580636 -1.061571
  C 5.590567 1.090301 -2.105212
  H 6.664066 1.109379 -2.144256
  H 0.409499 -0.444991 1.038522
  H 0.442557 -0.573166 -0.765522
  H 0.442508 1.056706 0.030330
  H 3.237026 -0.442919 1.034320
  H 2.919039 0.939366 -1.796150
  H 5.471709 0.170620 -0.221973
  H 5.070060 1.505276 -2.954952
 13
 94.119503
  C 0.444263 0.005306 0.116434
  C 2.930810 -0.009357 0.146520
  C 3.565569 0.530703 -0.959317
  C 5.003169 0.586746 -1.074088
  C 5.628546 1.102792 -2.130776
  H 6.704626 1.134348 -2.195411
  H 0.288688 -0.460442 1.070124
  H 0.309155 -0.584756 -0.758838
  H 0.309093 1.058593 0.043563
  H 3.292374 -0.450191 1.049213
  H 2.983320 0.928294 -1.773439
  H 5.569906 0.180953 -0.243119
  H 5.082247 1.512329 -2.969413
 13
 110.946386
  C 0.242072 -0.005830 0.139579
  C 3.021831 -0.005450 0.138679
  C 3.633815 0.523647 -0.944702
  C 5.080959 0.595071 -1.091055
  C 5.677138 1.116446 -2.158760
  H 6.744398 1.158538 -2.245146
  H 0.162781 -0.475636 1.101605
  H 0.154433 -0.601552 -0.740660
  H 0.154509 1.053937 0.068251
  H 3.347641 -0.453848 1.056791
  H 3.057135 0.917589 -1.751319
  H 5.662794 0.197256 -0.276554
  H 5.118303 1.515245 -2.975424
 13
 121.608691
  C 0.040036 -0.023499 0.174646
  C 3.104235 0.001036 0.124942
  C 3.706476 0.520226 -0.938104
  C 5.154174 0.601910 -1.105116
  C 5.728761 1.126877 -2.180054
  H 6.801923 1.177254 -2.282993
  H 0.037292 -0.492024 1.134275
  H -0.002810 -0.620839 -0.706171
  H -0.003103 1.040306 0.104074
  H 3.388280 -0.449611 1.047815
  H 3.124749 0.921508 -1.759924
  H 5.750040 0.206027 -0.294309
  H 5.151915 1.524724 -2.994818
 13
 128.122002
  C -0.161906 -0.045998 0.228259
  C 3.168483 0.016218 0.096333
  C 3.775022 0.530007 -0.956251
  C 5.224100 0.612211 -1.126435
  C 5.795597 1.137528 -2.202618
  H 6.879210 1.189461 -2.310393
  H -0.093231 -0.511736 1.183148
  H -0.183358 -0.647984 -0.661030
  H -0.182068 1.008912 0.158325
  H 3.422337 -0.439524 1.029008
  H 3.195951 0.934745 -1.784021
  H 5.822561 0.215038 -0.314113
  H 5.218457 1.532743 -3.010973
 13
 131.696054
  C -0.371857 -0.083933 0.298549
  C 3.223316 0.041572 0.041947
  C 3.844805 0.545864 -0.990681
  C 5.299678 0.622942 -1.148288
  C 5.882747 1.145371 -2.218170
  H 6.954833 1.192164 -2.313867
  H -0.227882 -0.547882 1.249581
  H -0.385762 -0.681684 -0.585627
  H -0.386045 0.981432 0.226712
  H 3.442371 -0.415459 0.977976
  H 3.281054 0.952544 -1.823679
  H 5.885424 0.224214 -0.331577
  H 5.309734 1.545826 -3.038437
 13
 133.466734
  C -0.586431 -0.132018 0.396974
  C 3.255894 0.081408 -0.039481
  C 3.910882 0.574490 -1.048962
  C 5.371084 0.635444 -1.173422
  C 5.984144 1.151229 -2.229675
  H 7.058700 1.185362 -2.300798
  H -0.363096 -0.590409 1.335925
  H -0.606082 -0.729325 -0.487844
  H -0.606520 0.933896 0.324318
  H 3.425937 -0.379607 0.904531
  H 3.374727 0.988871 -1.897562
  H 5.932340 0.229858 -0.343062
  H 5.434027 1.557568 -3.062775
 13
 133.982727
  C -0.787766 -0.187472 0.514047
  C 3.283448 0.129016 -0.140874
  C 3.978348 0.608436 -1.126958
  C 5.443269 0.644889 -1.203794
  C 6.099590 1.151149 -2.238133
  H 7.176233 1.178827 -2.266299
  H -0.543893 -0.642488 1.448618
  H -0.867608 -0.789796 -0.363505
  H -0.867753 0.875334 0.446719
  H 3.428435 -0.332466 0.807428
  H 3.475164 1.029397 -1.992287
  H 5.971750 0.235305 -0.354574
  H 5.587222 1.574696 -3.086680
