 25
 0.000000
  C 0.959565 0.146052 0.415361
  C 2.432312 0.139624 0.398767
  C 3.230465 0.604175 1.554474
  C 2.467000 1.095551 2.777917
  H 3.163317 1.405089 3.548296
  C 3.040268 -0.327588 -0.764193
  C 4.423203 -0.413002 -0.977727
  C 5.089691 -0.860414 -2.093304
  C 4.625704 -1.380323 -3.389496
  C 3.144238 -1.508211 -3.708580
  H 3.021952 -1.909258 -4.708656
  H 6.170521 -0.843020 -2.050264
  H 0.538072 0.518229 1.341376
  H 0.583577 -0.863833 0.243989
  H 0.583198 0.756246 -0.407216
  H 3.890307 1.409255 1.211664
  H 3.890610 -0.214044 1.863920
  H 1.836141 0.308302 3.185607
  H 1.835952 1.945943 2.527798
  H 2.377041 -0.644282 -1.552009
  H 5.051185 -0.084372 -0.159437
  H 5.099699 -2.363644 -3.510322
  H 5.099887 -0.753203 -4.156367
  H 2.654670 -0.537540 -3.674830
  H 2.654601 -2.186594 -3.013542
 25
 8.793289
  C 0.910813 0.158237 0.445714
  C 2.384267 0.141766 0.404008
  C 3.206785 0.600553 1.545312
  C 2.470008 1.097063 2.781751
  H 3.186491 1.401199 3.538747
  C 2.963167 -0.324869 -0.757504
  C 4.501373 -0.424256 -1.005728
  C 5.139889 -0.869993 -2.117152
  C 4.656534 -1.387582 -3.407600
  C 3.170852 -1.504919 -3.700328
  H 3.030605 -1.906009 -4.700541
  H 6.222918 -0.855839 -2.082138
  H 0.509612 0.533434 1.379209
  H 0.524573 -0.848691 0.279157
  H 0.524118 0.769553 -0.371352
  H 3.867272 1.399173 1.189469
  H 3.867658 -0.221960 1.840808
  H 1.842401 0.315550 3.204264
  H 1.842154 1.953551 2.546411
  H 2.299879 -0.639824 -1.541028
  H 5.128547 -0.097684 -0.192349
  H 5.124123 -2.373116 -3.536609
  H 5.124303 -0.764512 -4.181922
  H 2.688130 -0.531635 -3.659608
  H 2.688083 -2.180399 -2.998457
 25
 27.519408
  C 0.856080 0.174372 0.485819
  C 2.332084 0.146593 0.415809
  C 3.180893 0.599472 1.542474
  C 2.473318 1.101239 2.792326
  H 3.208280 1.398778 3.533061
  C 2.883055 -0.322676 -0.752342
  C 4.577224 -0.434491 -1.031304
  C 5.194973 -0.882684 -2.148836
  C 4.693658 -1.399806 -3.438043
  C 3.203516 -1.506198 -3.703345
  H 3.043646 -1.906015 -4.700303
  H 6.279133 -0.871488 -2.121174
  H 0.478307 0.552910 1.427713
  H 0.458093 -0.829162 0.325711
  H 0.457549 0.787673 -0.324209
  H 3.842000 1.391150 1.172321
  H 3.842491 -0.227934 1.822684
  H 1.848885 0.325261 3.230110
  H 1.848597 1.964300 2.572018
  H 2.226136 -0.638913 -1.539117
  H 5.193644 -0.106141 -0.213293
  H 5.154187 -2.387666 -3.575008
  H 5.154324 -0.780589 -4.219761
  H 2.728538 -0.529395 -3.654456
  H 2.728540 -2.178581 -2.993088
 25
 47.797949
  C 0.805146 0.190115 0.526351
  C 2.277135 0.145176 0.413307
  C 3.161294 0.588276 1.514099
  C 2.498315 1.098012 2.782904
  H 3.262625 1.386668 3.500539
  C 2.777348 -0.323312 -0.752062
  C 4.630869 -0.440280 -1.043722
  C 5.224979 -0.885440 -2.154419
  C 4.728848 -1.403088 -3.446596
  C 3.237593 -1.504324 -3.700316
  H 3.069853 -1.904180 -4.698525
  H 6.311542 -0.871218 -2.118785
  H 0.462881 0.573458 1.479201
  H 0.391193 -0.807582 0.371247
  H 0.390470 0.801911 -0.276495
  H 3.824252 1.368952 1.123443
  H 3.825028 -0.244977 1.772230
  H 1.880600 0.331048 3.244553
  H 1.880044 1.970793 2.585570
  H 2.158636 -0.646088 -1.554857
  H 5.190132 -0.101671 -0.199782
  H 5.188502 -2.390036 -3.587471
  H 5.189057 -0.786843 -4.230046
  H 2.768052 -0.525728 -3.649045
  H 2.767641 -2.176607 -2.987704
 25
 67.905992
  C 0.749318 0.207589 0.569865
  C 2.227014 0.151358 0.428855
  C 3.133576 0.589197 1.516447
  C 2.496055 1.103171 2.795617
  H 3.273728 1.386360 3.499551
  C 2.709926 -0.326737 -0.760275
  C 4.718533 -0.457919 -1.087532
  C 5.285605 -0.901030 -2.193340
  C 4.767681 -1.414586 -3.475454
  C 3.269999 -1.501371 -3.692980
  H 3.073477 -1.898927 -4.685643
  H 6.374206 -0.891784 -2.170243
  H 0.430030 0.593852 1.529711
  H 0.323947 -0.787407 0.423330
  H 0.323296 0.823275 -0.225028
  H 3.795837 1.363978 1.112844
  H 3.796650 -0.248811 1.761203
  H 1.880733 0.340606 3.268551
  H 1.880219 1.980572 2.609371
  H 2.093620 -0.654065 -1.574355
  H 5.266841 -0.115718 -0.234525
  H 5.216512 -2.405839 -3.625012
  H 5.216958 -0.801135 -4.268058
  H 2.812178 -0.517598 -3.629020
  H 2.811798 -2.168797 -2.967650
 25
 86.063614
  C 0.705263 0.223356 0.609409
  C 2.174362 0.153994 0.435835
  C 3.107266 0.581511 1.497305
  C 2.506784 1.101033 2.789828
  H 3.304203 1.376635 3.474515
  C 2.616933 -0.316694 -0.734560
  C 4.781525 -0.460187 -1.092433
  C 5.335123 -0.908699 -2.212185
  C 4.805737 -1.425311 -3.502555
  C 3.303450 -1.501963 -3.694768
  H 3.086887 -1.897945 -4.684046
  H 6.426947 -0.901439 -2.194095
  H 0.416184 0.613024 1.577293
  H 0.267723 -0.766828 0.473659
  H 0.267119 0.842833 -0.174561
  H 3.768183 1.348130 1.074628
  H 3.769011 -0.263696 1.722793
  H 1.895639 0.344965 3.278461
  H 1.895066 1.984528 2.619173
  H 2.015262 -0.644612 -1.550115
  H 5.300832 -0.112860 -0.226383
  H 5.246298 -2.418617 -3.657261
  H 5.246685 -0.813596 -4.300081
  H 2.854920 -0.514633 -3.621718
  H 2.854645 -2.166008 -2.960661
 25
 90.923238
  C 0.652208 0.247677 0.651236
  C 2.161165 0.150942 0.422815
  C 3.111172 0.575344 1.509837
  C 2.523352 1.099534 2.803971
  H 3.325101 1.369540 3.480418
  C 2.488620 -0.310363 -0.741699
  C 4.808168 -0.465863 -1.136347
  C 5.317582 -0.905135 -2.225895
  C 4.859277 -1.441211 -3.540625
  C 3.352798 -1.529507 -3.737930
  H 3.145314 -1.931970 -4.722498
  H 6.415416 -0.885493 -2.188029
  H 0.467496 0.640527 1.643974
  H 0.193390 -0.729882 0.560623
  H 0.200055 0.903013 -0.083951
  H 3.776494 1.336145 1.096734
  H 3.779365 -0.259019 1.732230
  H 1.906699 0.347927 3.293635
  H 1.914015 1.985203 2.633215
  H 1.981845 -0.654648 -1.609329
  H 5.189598 -0.093250 -0.212838
  H 5.306955 -2.428890 -3.672553
  H 5.299056 -0.822943 -4.326435
  H 2.899705 -0.543921 -3.664338
  H 2.908157 -2.186871 -2.994622
 25
 97.133373
  C 0.610832 0.263871 0.690355
  C 2.116368 0.157420 0.436361
  C 3.089632 0.578610 1.509567
  C 2.518170 1.104731 2.820051
  H 3.335166 1.368811 3.488202
  C 2.411227 -0.306534 -0.731240
  C 4.884018 -0.478831 -1.170241
  C 5.372385 -0.920557 -2.264006
  C 4.896992 -1.453302 -3.568586
  C 3.385492 -1.527835 -3.732931
  H 3.152175 -1.930015 -4.715832
  H 6.474707 -0.905661 -2.238568
  H 0.451348 0.659110 1.685996
  H 0.143168 -0.715310 0.610063
  H 0.148948 0.925182 -0.039920
  H 3.754350 1.341746 1.083991
  H 3.751474 -0.268807 1.724750
  H 1.905943 0.355233 3.318543
  H 1.913517 1.995854 2.662117
  H 1.919400 -0.654774 -1.605654
  H 5.239545 -0.103742 -0.243437
  H 5.334505 -2.447332 -3.705448
  H 5.326590 -0.834401 -4.362633
  H 2.943991 -0.538427 -3.650759
  H 2.952033 -2.181005 -2.980618
 25
 101.723674
  C 0.564325 0.281171 0.734753
  C 2.068265 0.164014 0.452583
  C 3.065522 0.578557 1.504993
  C 2.522066 1.105261 2.820921
  H 3.351727 1.361561 3.470934
  C 2.333083 -0.302706 -0.719813
  C 4.960373 -0.489964 -1.196311
  C 5.430851 -0.933743 -2.294619
  C 4.935002 -1.464426 -3.595005
  C 3.418772 -1.524371 -3.726084
  H 3.159593 -1.923099 -4.701393
  H 6.533688 -0.923717 -2.280399
  H 0.429614 0.678442 1.733457
  H 0.090132 -0.692204 0.665249
  H 0.095141 0.944068 0.015322
  H 3.721230 1.336212 1.068219
  H 3.717810 -0.274558 1.709080
  H 1.916297 0.359684 3.331064
  H 1.923042 2.001598 2.675846
  H 1.858632 -0.654472 -1.601490
  H 5.288806 -0.110243 -0.258635
  H 5.360039 -2.461228 -3.737542
  H 5.352973 -0.847534 -4.394534
  H 2.989482 -0.530176 -3.634479
  H 2.996386 -2.174169 -2.964194
 25
 105.053804
  C 0.520000 0.297486 0.777586
  C 2.018733 0.168640 0.465389
  C 3.042297 0.576420 1.497777
  C 2.524409 1.108130 2.826692
  H 3.370809 1.358817 3.461932
  C 2.253370 -0.299796 -0.709819
  C 5.035240 -0.501951 -1.223199
  C 5.488765 -0.947321 -2.325576
  C 4.972163 -1.474010 -3.618144
  C 3.452754 -1.518925 -3.715148
  H 3.166599 -1.915113 -4.685773
  H 6.592983 -0.942837 -2.323926
  H 0.411446 0.696409 1.778835
  H 0.037076 -0.673885 0.718795
  H 0.041672 0.965172 0.066490
  H 3.691655 1.333269 1.045784
  H 3.688000 -0.286096 1.690844
  H 1.924442 0.366048 3.350258
  H 1.930461 2.010497 2.693914
  H 1.796873 -0.654590 -1.598376
  H 5.332985 -0.120355 -0.280635
  H 5.385092 -2.475151 -3.766621
  H 5.379086 -0.857953 -4.424146
  H 3.036372 -0.520330 -3.613947
  H 3.042078 -2.165231 -2.944181
 25
 107.374524
  C 0.475587 0.315111 0.823570
  C 1.968134 0.173729 0.479331
  C 3.017784 0.573443 1.488956
  C 2.529718 1.108007 2.824786
  H 3.389880 1.351569 3.441054
  C 2.173383 -0.296529 -0.699232
  C 5.110308 -0.512748 -1.247124
  C 5.547841 -0.959498 -2.353287
  C 5.008796 -1.482733 -3.639459
  C 3.486616 -1.512643 -3.701954
  H 3.174105 -1.905061 -4.664942
  H 6.652634 -0.960769 -2.364780
  H 0.393837 0.715350 1.826832
  H -0.015249 -0.651478 0.775981
  H -0.011036 0.986110 0.123237
  H 3.657829 1.326849 1.023042
  H 3.654752 -0.295912 1.670157
  H 1.937175 0.370666 3.361236
  H 1.942270 2.015236 2.704488
  H 1.735498 -0.654546 -1.595378
  H 5.377047 -0.127463 -0.294897
  H 5.409210 -2.487469 -3.793971
  H 5.404163 -0.868025 -4.451505
  H 3.083178 -0.509731 -3.591339
  H 3.087889 -2.155733 -2.922064
 25
 108.931848
  C 0.432066 0.332114 0.868328
  C 1.916185 0.178424 0.492166
  C 2.991952 0.570090 1.479149
  C 2.533813 1.109249 2.826178
  H 3.410279 1.346427 3.424988
  C 2.095021 -0.293024 -0.688400
  C 5.186788 -0.523799 -1.271682
  C 5.609282 -0.972159 -2.382126
  C 5.044487 -1.490725 -3.658945
  C 3.521068 -1.504726 -3.685021
  H 3.180381 -1.893584 -4.640866
  H 6.714297 -0.980392 -2.409519
  H 0.375689 0.733255 1.872946
  H -0.067041 -0.631317 0.831571
  H -0.063393 1.007451 0.177619
  H 3.624422 1.320900 0.997900
  H 3.621968 -0.307235 1.647851
  H 1.947894 0.375738 3.376434
  H 1.952033 2.022447 2.718334
  H 1.672619 -0.653475 -1.590011
  H 5.425999 -0.137328 -0.315935
  H 5.431560 -2.499373 -3.820008
  H 5.427692 -0.877606 -4.477687
  H 3.131545 -0.497515 -3.564433
  H 3.135038 -2.144079 -2.895746
 25
 109.962435
  C 0.389924 0.349835 0.914911
  C 1.863763 0.183875 0.506639
  C 2.964030 0.566942 1.469801
  C 2.537655 1.109133 2.824232
  H 3.427752 1.339133 3.403660
  C 2.018641 -0.288710 -0.675941
  C 5.264996 -0.534437 -1.295706
  C 5.672740 -0.984390 -2.410213
  C 5.079187 -1.498167 -3.677092
  C 3.555267 -1.495947 -3.665963
  H 3.186309 -1.880501 -4.612656
  H 6.777099 -1.000417 -2.455462
  H 0.358241 0.751618 1.920291
  H -0.116802 -0.609426 0.889198
  H -0.113891 1.028884 0.234711
  H 3.588686 1.313667 0.974339
  H 3.586937 -0.316687 1.625692
  H 1.959144 0.380407 3.386920
  H 1.962303 2.026841 2.728553
  H 1.608318 -0.651324 -1.582292
  H 5.482199 -0.145775 -0.334057
  H 5.452416 -2.510774 -3.845023
  H 5.449774 -0.886985 -4.502901
  H 3.180038 -0.484577 -3.535273
  H 3.182314 -2.131259 -2.867184
 25
 110.594710
  C 0.348369 0.367553 0.961381
  C 1.810989 0.189683 0.521501
  C 2.935693 0.564376 1.461532
  C 2.540785 1.110069 2.825290
  H 3.445606 1.333348 3.386314
  C 1.943381 -0.283590 -0.662369
  C 5.343990 -0.544975 -1.319982
  C 5.737027 -0.996724 -2.438836
  C 5.113348 -1.505174 -3.694094
  C 3.590360 -1.486728 -3.645557
  H 3.193161 -1.867028 -4.582965
  H 6.840068 -1.021207 -2.503532
  H 0.340405 0.769674 1.967035
  H -0.165921 -0.588160 0.946430
  H -0.163864 1.050656 0.291252
  H 3.553310 1.307430 0.951701
  H 3.552626 -0.325821 1.604419
  H 1.969119 0.385095 3.400755
  H 1.971099 2.033065 2.741670
  H 1.543244 -0.647641 -1.571768
  H 5.541848 -0.155798 -0.356726
  H 5.472413 -2.521471 -3.868859
  H 5.470968 -0.896229 -4.526924
  H 3.229580 -0.471384 -3.504949
  H 3.230735 -2.117899 -2.837375
