 20
 0.000000
  C 1.110991 0.034107 0.057002
  C 2.607345 0.044465 0.038423
  C 3.323007 0.540266 -0.976879
  C 4.760992 0.550254 -0.998209
  C 5.480966 1.048573 -2.018642
  C 6.919637 1.057489 -2.037898
  C 7.637499 1.552389 -3.051368
  C 9.127605 1.570651 -3.089761
  H 0.749053 -0.416797 0.980412
  H 0.715796 -0.547899 -0.776275
  H 0.714168 1.047720 0.001010
  H 3.106268 -0.377607 0.900932
  H 2.811633 0.959641 -1.834884
  H 5.265787 0.129500 -0.137347
  H 4.976671 1.469403 -2.879684
  H 7.426661 0.637144 -1.177880
  H 7.138544 1.974487 -3.914965
  H 9.561929 1.132251 -2.192723
  H 9.486966 2.597147 -3.178987
  H 9.486440 1.009945 -3.954435
 20
 -0.228887
  C 1.106231 0.023694 0.062374
  C 2.600651 0.043207 0.041465
  C 3.323071 0.553791 -0.959584
  C 4.758378 0.549965 -0.996809
  C 5.484916 1.062917 -2.005364
  C 6.920120 1.057052 -2.042518
  C 7.643039 1.564754 -3.043851
  C 9.130342 1.566897 -3.097749
  H 0.732424 -0.288744 1.033586
  H 0.735119 -0.678381 -0.686662
  H 0.701520 1.004817 -0.177761
  H 3.106140 -0.402051 0.888532
  H 2.818674 1.003357 -1.806855
  H 5.263527 0.100342 -0.150457
  H 4.979894 1.512683 -2.851809
  H 7.422982 0.607700 -1.194004
  H 7.142413 2.014068 -3.892241
  H 9.555585 1.100193 -2.213338
  H 9.504523 2.588305 -3.170334
  H 9.477436 1.028936 -3.980282
 20
 -0.424730
  C 1.108220 0.020607 0.062850
  C 2.600859 0.032044 0.032273
  C 3.324257 0.562315 -0.957764
  C 4.759475 0.547886 -1.000009
  C 5.486850 1.076275 -1.999947
  C 6.919064 1.057003 -2.043642
  C 7.642272 1.576980 -3.037906
  C 9.128916 1.564510 -3.099243
  H 0.736387 -0.143224 1.072191
  H 0.740693 -0.791563 -0.570831
  H 0.703837 0.949735 -0.327715
  H 3.107054 -0.445179 0.863183
  H 2.820618 1.042105 -1.792227
  H 5.263506 0.075756 -0.166339
  H 4.982289 1.549705 -2.834965
  H 7.423216 0.583047 -1.202057
  H 7.141362 2.049599 -3.875606
  H 9.551376 1.072494 -2.231911
  H 9.513561 2.582217 -3.147546
  H 9.466384 1.045844 -3.997691
 20
 -0.347265
  C 1.109114 0.006430 0.064964
  C 2.596732 0.043174 0.028369
  C 3.323322 0.606568 -0.941073
  C 4.756493 0.545570 -1.008348
  C 5.486468 1.088838 -1.999423
  C 6.920948 1.053338 -2.050362
  C 7.646463 1.576355 -3.042598
  C 9.130498 1.557346 -3.105288
  H 0.738361 -0.040087 1.085607
  H 0.787846 -0.907701 -0.447097
  H 0.674515 0.855480 -0.461993
  H 3.101769 -0.425938 0.864615
  H 2.823198 1.098510 -1.767026
  H 5.257101 0.027118 -0.201321
  H 4.986003 1.605423 -2.808939
  H 7.421620 0.575777 -1.214813
  H 7.148789 2.052811 -3.875587
  H 9.552866 1.021114 -2.254301
  H 9.522460 2.579228 -3.108801
  H 9.464439 1.077583 -4.026429
 20
 1.299182
  C 1.109814 -0.029505 0.049364
  C 2.597590 0.072403 0.040449
  C 3.323419 0.674234 -0.901691
  C 4.757697 0.631545 -0.958579
  C 5.483951 1.135434 -1.972772
  C 6.917162 1.051826 -2.052444
  C 7.641351 1.569089 -3.046950
  C 9.131775 1.518978 -3.128019
  H 0.704934 -0.161393 1.043170
  H 0.902603 -0.960035 -0.504980
  H 0.634785 0.780858 -0.494254
  H 3.114314 -0.399078 0.869527
  H 2.824128 1.189031 -1.712482
  H 5.260885 0.124681 -0.145190
  H 4.981519 1.635026 -2.791020
  H 7.417361 0.527883 -1.242677
  H 7.144784 2.081156 -3.859726
  H 9.554725 1.006629 -2.266613
  H 9.540144 2.529008 -3.171066
  H 9.447195 0.999844 -4.033759
 20
 5.957328
  C 1.096502 -0.026733 0.110844
  C 2.574835 0.081147 -0.026922
  C 3.302268 0.679211 -0.970184
  C 4.740520 0.661845 -0.991942
  C 5.484957 1.192095 -1.979032
  C 6.918704 1.084683 -2.045621
  C 7.660305 1.578551 -3.038424
  C 9.144822 1.480103 -3.118075
  H 0.779541 -0.237269 1.126488
  H 0.997195 -0.983299 -0.431331
  H 0.524974 0.709797 -0.439954
  H 3.115085 -0.387123 0.790767
  H 2.808425 1.211672 -1.774180
  H 5.232839 0.175725 -0.155730
  H 4.991889 1.670312 -2.824200
  H 7.401988 0.557777 -1.231475
  H 7.183790 2.118022 -3.842710
  H 9.544533 0.943562 -2.269063
  H 9.591442 2.478418 -3.141937
  H 9.445070 0.960345 -4.030201
 20
 12.350907
  C 1.109936 0.094378 0.166635
  C 2.578259 0.075790 -0.026963
  C 3.301102 0.579999 -1.019027
  C 4.726150 0.489223 -1.089884
  C 5.474169 1.037852 -2.066269
  C 6.911528 1.015785 -2.083231
  C 7.663197 1.629445 -2.999990
  C 9.147977 1.544869 -3.071140
  H 0.789634 0.000029 1.196433
  H 1.048487 -0.930316 -0.269182
  H 0.530369 0.732216 -0.483240
  H 3.140937 -0.338503 0.808727
  H 2.800788 1.065877 -1.853479
  H 5.222420 -0.009835 -0.267078
  H 4.987266 1.608664 -2.848649
  H 7.386740 0.478980 -1.286442
  H 7.188023 2.224187 -3.768993
  H 9.553349 0.971960 -2.245941
  H 9.581069 2.548089 -3.057113
  H 9.455915 1.094764 -4.016814
 20
 25.941521
  C 1.136414 0.138108 0.183155
  C 2.592593 0.094497 0.031640
  C 3.289496 0.611153 -0.980736
  C 4.724670 0.482233 -1.081809
  C 5.473712 1.085538 -2.029815
  C 6.903362 1.012833 -2.086979
  C 7.651797 1.602855 -3.022260
  C 9.136204 1.536416 -3.081574
  H 0.643678 -0.136987 1.092531
  H 1.267490 -0.894313 -0.287551
  H 0.562242 0.685031 -0.566681
  H 3.167982 -0.208687 0.911108
  H 2.803324 1.060339 -1.832103
  H 5.229803 -0.053226 -0.297701
  H 4.980106 1.704502 -2.774735
  H 7.376491 0.412721 -1.323156
  H 7.167748 2.161755 -3.817006
  H 9.539819 0.975160 -2.236162
  H 9.560332 2.538313 -3.064416
  H 9.455985 1.067340 -4.010069
 20
 39.465113
  C 1.122717 0.078593 0.181788
  C 2.589780 0.093786 0.014339
  C 3.323238 0.770828 -0.894151
  C 4.740174 0.635754 -0.991714
  C 5.481039 1.156026 -1.987074
  C 6.906688 1.035207 -2.065047
  C 7.646446 1.512367 -3.073440
  C 9.131112 1.497282 -3.110759
  H 0.580982 -0.451113 0.951676
  H 1.429631 -0.870010 -0.438592
  H 0.527357 0.673376 -0.492707
  H 3.124327 -0.302020 0.867530
  H 2.806880 1.297710 -1.687762
  H 5.232122 0.098742 -0.196225
  H 4.985410 1.680861 -2.799802
  H 7.396870 0.508979 -1.256997
  H 7.164524 1.961223 -3.929559
  H 9.544097 0.977132 -2.224897
  H 9.516074 2.503049 -3.134051
  H 9.483435 0.976682 -4.003219
 20
 56.235810
  C 1.113893 0.190629 0.245038
  C 2.544711 0.044754 -0.028985
  C 3.276982 0.602479 -1.040778
  C 4.691097 0.512832 -1.109119
  C 5.455325 1.084698 -2.067485
  C 6.883191 1.048485 -2.069736
  C 7.654557 1.595387 -3.015573
  C 9.141473 1.504318 -3.057511
  H 0.715832 -0.186540 1.165980
  H 1.652214 -0.854790 -0.356634
  H 0.465566 0.687929 -0.453359
  H 3.147012 -0.333495 0.796790
  H 2.770575 1.158030 -1.814394
  H 5.188742 -0.007570 -0.294294
  H 4.976399 1.637492 -2.865978
  H 7.351725 0.513479 -1.250499
  H 7.194084 2.138119 -3.828486
  H 9.524608 0.958654 -2.196993
  H 9.588281 2.499021 -3.066275
  H 9.468911 0.995714 -3.965358
 20
 62.459398
  C 1.103732 0.246492 0.268950
  C 2.532622 -0.003107 -0.001993
  C 3.290565 0.614541 -1.015980
  C 4.685949 0.537389 -1.080417
  C 5.453602 1.094003 -2.059668
  C 6.876696 1.032188 -2.079467
  C 7.648094 1.576656 -3.031087
  C 9.135814 1.499639 -3.059445
  H 0.627147 -0.215421 1.110040
  H 1.907199 -0.876915 -0.435794
  H 0.498245 0.764475 -0.449182
  H 3.105723 -0.361414 0.849772
  H 2.765986 1.124693 -1.812334
  H 5.187808 0.014205 -0.273922
  H 4.969514 1.629232 -2.866147
  H 7.348374 0.498819 -1.262072
  H 7.187748 2.114390 -3.850106
  H 9.514602 0.943780 -2.204611
  H 9.570666 2.500111 -3.046990
  H 9.474785 1.009770 -3.974051
 20
 61.610673
  C 1.113066 0.295702 0.287941
  C 2.517696 -0.036982 -0.000567
  C 3.294184 0.593350 -1.027544
  C 4.678393 0.518992 -1.086004
  C 5.452296 1.081763 -2.068638
  C 6.871526 1.026877 -2.081204
  C 7.646425 1.576122 -3.030850
  C 9.133492 1.502990 -3.052867
  H 0.621345 -0.174364 1.117215
  H 2.034766 -0.930498 -0.481974
  H 0.524250 0.828078 -0.432214
  H 3.087287 -0.387694 0.857790
  H 2.765007 1.100864 -1.821078
  H 5.183487 -0.000749 -0.278916
  H 4.967110 1.614896 -2.874617
  H 7.344036 0.494599 -1.261874
  H 7.186655 2.113269 -3.851190
  H 9.511099 0.946970 -2.196249
  H 9.565491 2.505538 -3.037784
  H 9.477972 1.016109 -3.965492
 20
 59.701818
  C 1.127228 0.326022 0.301939
  C 2.502694 -0.066548 -0.006379
  C 3.296855 0.583808 -1.035102
  C 4.672592 0.512419 -1.086560
  C 5.452222 1.079999 -2.070618
  C 6.866803 1.017690 -2.084054
  C 7.645812 1.569832 -3.032499
  C 9.132274 1.500514 -3.047535
  H 0.619557 -0.149082 1.118534
  H 2.162890 -0.990012 -0.526054
  H 0.545775 0.874104 -0.413653
  H 3.074883 -0.391827 0.862251
  H 2.765145 1.092453 -1.826730
  H 5.179261 -0.016071 -0.286137
  H 4.966279 1.614606 -2.875385
  H 7.338042 0.482061 -1.267168
  H 7.187436 2.107115 -3.852722
  H 9.507191 0.945446 -2.190256
  H 9.560800 2.503907 -3.030017
  H 9.483350 1.015485 -3.959925
 20
 58.677914
  C 1.134216 0.340594 0.300500
  C 2.492753 -0.084805 -0.009174
  C 3.300331 0.585230 -1.034587
  C 4.669606 0.493497 -1.094950
  C 5.453625 1.072715 -2.074630
  C 6.865770 1.006612 -2.088126
  C 7.647159 1.572896 -3.027804
  C 9.132513 1.492933 -3.047269
  H 0.605316 -0.139320 1.101373
  H 2.301145 -1.051110 -0.515428
  H 0.559298 0.878069 -0.430152
  H 3.072199 -0.326730 0.884548
  H 2.771357 1.110891 -1.817123
  H 5.176026 -0.050302 -0.304846
  H 4.968185 1.625352 -2.867748
  H 7.335955 0.453908 -1.282493
  H 7.190598 2.128354 -3.836330
  H 9.505122 0.918331 -2.202561
  H 9.568183 2.492640 -3.011183
  H 9.477512 1.024078 -3.970556
