 11
 0.000000
  H 1.363789 0.138534 0.394016
  C 2.438759 0.112343 0.330826
  H 2.997512 0.456121 1.187788
  C 3.069460 -0.338694 -0.791602
  C 4.468638 -0.377772 -0.888368
  C 5.136985 -0.832587 -2.022769
  H 4.596249 -1.183510 -2.897020
  O 6.408836 -0.877035 -2.135413
  H 2.487034 -0.678108 -1.638017
  H 5.078602 -0.044714 -0.058413
  H 6.910241 -0.560997 -1.348714
 11
 2.087034
  H 1.344183 0.180034 0.353164
  C 2.417985 0.108106 0.323578
  H 2.954586 0.346803 1.227974
  C 3.071404 -0.275145 -0.808530
  C 4.473665 -0.372421 -0.864078
  C 5.145154 -0.866766 -1.980819
  H 4.586366 -1.327894 -2.794014
  O 6.417102 -0.959714 -2.103116
  H 2.506280 -0.509439 -1.700870
  H 5.055733 -0.129154 0.017207
  H 6.967687 -0.337707 -1.577320
 11
 8.766834
  H 1.326949 0.206181 0.319705
  C 2.398786 0.103867 0.314999
  H 2.916277 0.272660 1.246085
  C 3.072975 -0.233921 -0.820138
  C 4.472340 -0.367840 -0.842060
  C 5.161812 -0.877347 -1.934463
  H 4.609833 -1.387608 -2.725513
  O 6.442510 -1.018222 -2.003096
  H 2.528432 -0.400277 -1.739827
  H 5.035974 -0.172116 0.061780
  H 7.018198 -0.239388 -1.859636
 11
 15.553905
  H 1.281246 0.169665 0.329156
  C 2.354701 0.079660 0.339532
  H 2.856665 0.231180 1.282497
  C 3.050452 -0.239496 -0.790277
  C 4.449470 -0.380216 -0.784677
  C 5.164560 -0.871421 -1.868226
  H 4.632187 -1.305789 -2.717879
  O 6.453631 -1.020700 -1.850341
  H 2.523978 -0.390064 -1.723553
  H 5.010806 -0.144534 0.111168
  H 7.077425 -0.318294 -2.105603
 11
 11.356319
  H 1.260730 0.152197 0.304488
  C 2.335580 0.086045 0.327385
  H 2.827491 0.306021 1.261863
  C 3.046479 -0.285563 -0.776109
  C 4.445376 -0.412240 -0.746167
  C 5.185274 -0.818117 -1.851290
  H 4.682988 -1.086695 -2.781860
  O 6.464199 -0.979126 -1.754090
  H 2.530999 -0.497573 -1.703526
  H 4.994367 -0.166686 0.155719
  H 7.096530 -0.497705 -2.321932
 11
 7.393456
  H 1.239849 0.046180 0.307608
  C 2.315204 -0.003391 0.332474
  H 2.793251 0.043044 1.297980
  C 3.041353 -0.176473 -0.806087
  C 4.439956 -0.316896 -0.778137
  C 5.195799 -0.832132 -1.827754
  H 4.732255 -1.282043 -2.703293
  O 6.475543 -0.870604 -1.674513
  H 2.541222 -0.226107 -1.764603
  H 5.033677 0.071470 0.043597
  H 7.059446 -0.764517 -2.453630
 11
 15.809737
  H 1.246720 0.019809 0.350842
  C 2.319910 -0.066181 0.350383
  H 2.803513 -0.257439 1.294615
  C 3.022870 -0.035581 -0.806127
  C 4.419978 -0.241023 -0.839285
  C 5.186142 -0.914662 -1.778966
  H 4.807891 -1.628877 -2.504377
  O 6.466781 -0.772435 -1.608405
  H 2.515723 0.139328 -1.747860
  H 5.122199 0.274847 -0.184936
  H 7.046398 -0.704247 -2.393843
 11
 29.538320
  H 1.262151 0.078734 0.417407
  C 2.323921 -0.090413 0.361510
  H 2.831346 -0.370341 1.270299
  C 2.978119 -0.006669 -0.817952
  C 4.351476 -0.307418 -0.937736
  C 5.179067 -1.019753 -1.778508
  H 4.957943 -1.859785 -2.425553
  O 6.434843 -0.693061 -1.540759
  H 2.462253 0.337730 -1.707741
  H 5.173991 0.232577 -0.416186
  H 7.017286 -0.491193 -2.300353
 11
 49.249858
  H 1.307006 0.162461 0.505971
  C 2.346460 -0.088491 0.381663
  H 2.878853 -0.439769 1.250718
  C 2.938199 -0.011617 -0.836481
  C 4.260578 -0.403724 -1.062934
  C 5.153673 -1.082951 -1.807714
  H 5.079514 -1.950077 -2.444706
  O 6.382222 -0.619626 -1.451505
  H 2.400465 0.415876 -1.676601
  H 5.279900 0.133225 -0.581774
  H 6.973675 -0.311510 -2.169033
 11
 59.665687
  H 1.326094 0.208175 0.531065
  C 2.343164 -0.105003 0.375882
  H 2.867038 -0.518363 1.221306
  C 2.920979 -0.013162 -0.850597
  C 4.196142 -0.457970 -1.136895
  C 5.109613 -1.093602 -1.828566
  H 5.093744 -1.943832 -2.485721
  O 6.356769 -0.593696 -1.379652
  H 2.394308 0.488528 -1.656548
  H 5.485112 0.061797 -0.631745
  H 6.950492 -0.239315 -2.076827
 11
 52.630307
  H 1.334777 0.238559 0.548718
  C 2.330814 -0.120710 0.367202
  H 2.835965 -0.607130 1.183459
  C 2.903389 -0.003063 -0.867346
  C 4.146116 -0.466291 -1.190335
  C 5.081909 -1.070647 -1.843617
  H 5.107510 -1.937201 -2.476698
  O 6.349058 -0.552671 -1.339245
  H 2.389046 0.558854 -1.640666
  H 5.684547 0.020297 -0.670765
  H 6.946695 -0.172161 -2.023990
 11
 42.311227
  H 1.346555 0.360983 0.556267
  C 2.319838 -0.056725 0.380991
  H 2.822577 -0.510688 1.216406
  C 2.876819 -0.036248 -0.864573
  C 4.083391 -0.553466 -1.186520
  C 5.068752 -1.206896 -1.731182
  H 5.135891 -2.150209 -2.240366
  O 6.369698 -0.549488 -1.391444
  H 2.359838 0.486893 -1.661521
  H 5.877462 0.110576 -0.828596
  H 6.904811 -0.230545 -2.156054
 11
 35.998018
  H 1.230482 0.152852 0.522261
  C 2.182055 -0.285866 0.288312
  H 2.572008 -1.020669 0.969972
  C 2.854297 0.062008 -0.854427
  C 4.045301 -0.447791 -1.237094
  C 5.068564 -0.987936 -1.806328
  H 5.129531 -1.790809 -2.519894
  O 6.387625 -0.556563 -1.292305
  H 2.440261 0.833343 -1.494309
  H 6.064813 0.014723 -0.558765
  H 6.971274 -0.126459 -1.962365
 11
 34.468374
  H 1.229914 0.290034 0.534485
  C 2.215797 -0.095350 0.354726
  H 2.733397 -0.538395 1.186812
  C 2.774940 -0.037893 -0.892522
  C 4.003207 -0.500165 -1.216333
  C 5.053656 -1.056496 -1.707508
  H 5.121408 -1.988418 -2.250315
  O 6.379047 -0.546820 -1.410820
  H 2.225696 0.445865 -1.692954
  H 6.279340 0.135481 -0.708395
  H 6.974294 -0.270092 -2.148389
 11
 32.226304
  H 1.237662 0.292382 0.540616
  C 2.192339 -0.150535 0.327844
  H 2.654823 -0.738556 1.099901
  C 2.789800 0.020303 -0.894237
  C 3.985450 -0.499636 -1.238471
  C 5.072378 -1.080909 -1.602270
  H 5.157804 -2.056747 -2.059281
  O 6.393846 -0.511362 -1.386983
  H 2.290990 0.621368 -1.645265
  H 6.339123 0.317289 -0.854693
  H 6.876481 -0.375845 -2.238375
