 26
 0.000000
  C 0.973061 0.139069 0.397075
  C 2.448754 0.138908 0.396165
  C 3.234077 0.607792 1.563200
  C 2.455546 1.096283 2.779713
  H 3.133380 1.410502 3.561845
  C 3.069251 -0.324585 -0.758226
  C 4.445562 -0.410478 -0.972212
  C 5.120550 -0.862890 -2.099792
  C 4.622451 -1.385179 -3.401508
  C 3.132652 -1.501572 -3.692212
  H 2.981745 -1.900460 -4.686386
  O 6.442934 -0.859643 -2.091848
  H 0.538984 0.509123 1.318453
  H 0.602579 -0.872798 0.227849
  H 0.602258 0.752597 -0.425034
  H 3.890873 1.418757 1.229091
  H 3.891148 -0.208753 1.882818
  H 1.820904 0.303123 3.171410
  H 1.820698 1.939905 2.514047
  H 2.414264 -0.642956 -1.551058
  H 5.068553 -0.080074 -0.149193
  H 5.079165 -2.373397 -3.526826
  H 5.079470 -0.757902 -4.175180
  H 2.655232 -0.525201 -3.644497
  H 2.654925 -2.174001 -2.982897
  H 6.824476 -0.525645 -1.258349
 26
 0.026073
  C 0.966698 0.113961 0.413573
  C 2.441104 0.162768 0.382104
  C 3.233508 0.652191 1.538875
  C 2.462158 1.076894 2.777075
  H 3.162168 1.408808 3.539025
  C 3.058644 -0.264370 -0.790179
  C 4.435113 -0.347573 -0.990855
  C 5.112184 -0.904693 -2.071653
  C 4.617864 -1.384158 -3.391854
  C 3.129995 -1.481081 -3.693220
  H 3.013841 -1.849742 -4.709103
  O 6.426503 -1.002821 -2.017364
  H 0.544691 0.457325 1.350674
  H 0.626582 -0.902254 0.221546
  H 0.560864 0.711564 -0.400954
  H 3.836550 1.499256 1.200405
  H 3.944438 -0.127594 1.825968
  H 1.888774 0.252432 3.190620
  H 1.790499 1.903323 2.564012
  H 2.399611 -0.592630 -1.576668
  H 5.068921 0.001147 -0.183543
  H 5.084554 -2.363009 -3.550880
  H 5.092160 -0.731389 -4.135704
  H 2.646501 -0.511983 -3.644748
  H 2.634431 -2.185759 -3.033604
  H 6.829240 -0.680584 -1.188314
 26
 0.911921
  C 0.969688 0.110092 0.414718
  C 2.439491 0.190640 0.372443
  C 3.233226 0.675511 1.533035
  C 2.463454 1.059097 2.789134
  H 3.162954 1.375617 3.556607
  C 3.058996 -0.213660 -0.806634
  C 4.435335 -0.303469 -1.012501
  C 5.104014 -0.925682 -2.064031
  C 4.614630 -1.373206 -3.398298
  C 3.132347 -1.489171 -3.698478
  H 3.020541 -1.814770 -4.728812
  O 6.409126 -1.100805 -1.973134
  H 0.550374 0.455467 1.348083
  H 0.647121 -0.918736 0.235138
  H 0.543534 0.690043 -0.403731
  H 3.821467 1.536259 1.204926
  H 3.962495 -0.101927 1.798884
  H 1.899297 0.215293 3.181881
  H 1.781949 1.888399 2.602424
  H 2.403582 -0.551520 -1.598213
  H 5.074986 0.070847 -0.226136
  H 5.103654 -2.333488 -3.595037
  H 5.068489 -0.681462 -4.115128
  H 2.626265 -0.531794 -3.608254
  H 2.657826 -2.235085 -3.066707
  H 6.806899 -0.791886 -1.140025
 26
 2.057591
  C 0.979178 0.072234 0.427179
  C 2.444620 0.200624 0.367343
  C 3.236825 0.681658 1.526152
  C 2.465949 1.071998 2.780859
  H 3.165793 1.385609 3.548517
  C 3.065217 -0.185877 -0.819650
  C 4.438470 -0.242220 -1.041641
  C 5.082755 -0.966315 -2.044574
  C 4.614153 -1.358348 -3.403832
  C 3.128617 -1.452354 -3.725248
  H 3.024403 -1.748650 -4.766511
  O 6.359004 -1.245476 -1.899417
  H 0.558101 0.439820 1.351082
  H 0.697065 -0.977951 0.306901
  H 0.522098 0.595818 -0.411433
  H 3.828310 1.541143 1.195516
  H 3.963072 -0.098679 1.794166
  H 1.896099 0.232201 3.175061
  H 1.788378 1.904201 2.591167
  H 2.412121 -0.544058 -1.595768
  H 5.085855 0.152705 -0.272058
  H 5.102112 -2.310368 -3.640083
  H 5.069751 -0.622761 -4.079198
  H 2.628862 -0.493331 -3.614849
  H 2.637864 -2.208436 -3.117036
  H 6.756330 -0.935990 -1.063988
 26
 4.824113
  C 0.986157 0.002765 0.467518
  C 2.447764 0.180968 0.377787
  C 3.244917 0.685298 1.526895
  C 2.472208 1.124847 2.760551
  H 3.172982 1.452111 3.527609
  C 3.059650 -0.181998 -0.814736
  C 4.429047 -0.182429 -1.082901
  C 5.037226 -1.002921 -2.034718
  C 4.622395 -1.336786 -3.426249
  C 3.142779 -1.375142 -3.785785
  H 3.054222 -1.631433 -4.837329
  O 6.271156 -1.410564 -1.821892
  H 0.563557 0.417330 1.372958
  H 0.746448 -1.062302 0.427958
  H 0.497094 0.444470 -0.399102
  H 3.859486 1.521821 1.173664
  H 3.944786 -0.100706 1.827218
  H 1.887995 0.311616 3.173755
  H 1.807647 1.957558 2.536389
  H 2.399700 -0.583950 -1.567473
  H 5.093652 0.220568 -0.325276
  H 5.091087 -2.294802 -3.670541
  H 5.126029 -0.593487 -4.053341
  H 2.671437 -0.405036 -3.646140
  H 2.620821 -2.135870 -3.218411
  H 6.652691 -1.150746 -0.961951
 26
 9.109091
  C 0.994540 0.004293 0.441729
  C 2.451188 0.231879 0.345887
  C 3.253427 0.700217 1.506491
  C 2.494856 1.040753 2.782668
  H 3.195186 1.408600 3.529407
  C 3.060370 -0.112798 -0.846394
  C 4.420138 -0.066578 -1.146216
  C 4.998352 -1.016633 -1.995504
  C 4.606066 -1.427039 -3.374457
  C 3.148690 -1.352421 -3.808183
  H 3.086438 -1.636959 -4.855097
  O 6.200332 -1.458456 -1.717043
  H 0.586552 0.278040 1.409834
  H 0.768276 -1.045070 0.253410
  H 0.477291 0.570854 -0.332611
  H 3.817863 1.586960 1.185203
  H 4.002337 -0.060993 1.742330
  H 1.992224 0.169607 3.198440
  H 1.761134 1.826311 2.607074
  H 2.397602 -0.436030 -1.628887
  H 5.084053 0.397093 -0.429758
  H 4.977291 -2.447983 -3.515194
  H 5.204776 -0.790817 -4.031266
  H 2.757575 -0.339814 -3.724877
  H 2.528334 -2.042482 -3.239183
  H 6.585975 -1.128827 -0.882247
 26
 12.011912
  C 0.981125 0.063126 0.426439
  C 2.447676 0.225141 0.329920
  C 3.267469 0.631441 1.495576
  C 2.527479 0.959823 2.785815
  H 3.240824 1.245626 3.550931
  C 3.053891 -0.070432 -0.886013
  C 4.395175 0.054342 -1.226949
  C 4.990997 -0.949885 -1.993643
  C 4.595838 -1.475233 -3.331001
  C 3.160348 -1.358787 -3.803815
  H 3.103839 -1.751243 -4.819262
  O 6.143815 -1.421830 -1.637437
  H 0.587358 0.312992 1.401038
  H 0.697714 -0.965198 0.183212
  H 0.493454 0.690597 -0.322326
  H 3.855209 1.507325 1.199087
  H 3.995556 -0.157672 1.707053
  H 1.971752 0.092064 3.156079
  H 1.832787 1.785924 2.646541
  H 2.378427 -0.413792 -1.652074
  H 5.042170 0.525293 -0.493784
  H 4.917892 -2.518331 -3.380753
  H 5.243689 -0.926257 -4.027604
  H 2.832732 -0.318091 -3.839967
  H 2.489195 -1.939453 -3.188583
  H 6.552731 -0.998225 -0.859712
 26
 17.761262
  C 0.991627 0.029276 0.427350
  C 2.451472 0.208043 0.301563
  C 3.296658 0.597343 1.466281
  C 2.571082 0.932397 2.764132
  H 3.299168 1.209403 3.521595
  C 3.021611 -0.047441 -0.940363
  C 4.353524 0.160893 -1.315520
  C 4.919298 -0.950185 -1.942117
  C 4.550977 -1.563222 -3.237926
  C 3.183636 -1.290265 -3.834771
  H 3.176565 -1.651403 -4.862371
  O 6.048309 -1.451802 -1.494063
  H 0.636343 0.182321 1.436468
  H 0.703852 -0.965966 0.098532
  H 0.478874 0.725489 -0.232216
  H 3.905657 1.451698 1.172303
  H 3.999237 -0.223687 1.669425
  H 2.010201 0.083616 3.142032
  H 1.894639 1.773904 2.633101
  H 2.340112 -0.410524 -1.703265
  H 4.981720 0.729025 -0.633963
  H 4.763450 -2.631365 -3.204307
  H 5.301072 -1.123457 -3.911117
  H 2.965337 -0.230350 -3.853765
  H 2.400773 -1.818979 -3.304329
  H 6.498115 -0.936360 -0.795509
 26
 27.463623
  C 0.999578 0.042350 0.376269
  C 2.469403 0.214033 0.241674
  C 3.343176 0.494979 1.412925
  C 2.645123 0.825913 2.726430
  H 3.391395 1.063222 3.478464
  C 3.030618 0.024494 -1.003480
  C 4.351398 0.347521 -1.412319
  C 4.850898 -0.867027 -1.855853
  C 4.510776 -1.567258 -3.135961
  C 3.169996 -1.305234 -3.811065
  H 3.184005 -1.775242 -4.795457
  O 5.918187 -1.383427 -1.289481
  H 0.660962 0.113765 1.405292
  H 0.689752 -0.918862 -0.031600
  H 0.484849 0.807906 -0.213093
  H 4.014808 1.316844 1.153627
  H 3.977729 -0.383084 1.576258
  H 2.068527 -0.017668 3.095552
  H 1.989450 1.687126 2.623004
  H 2.347308 -0.289248 -1.780587
  H 4.960434 1.008349 -0.802658
  H 4.651850 -2.640667 -2.985892
  H 5.316561 -1.236233 -3.806821
  H 2.996676 -0.241630 -3.952319
  H 2.345603 -1.749710 -3.257128
  H 6.378911 -0.811984 -0.643470
 26
 37.252654
  C 1.036319 0.020366 0.359887
  C 2.500968 0.157357 0.208309
  C 3.396115 0.421574 1.369747
  C 2.722969 0.768756 2.695119
  H 3.487034 1.000987 3.436704
  C 3.027931 0.008152 -1.056910
  C 4.309105 0.496960 -1.502083
  C 4.745280 -0.794317 -1.798161
  C 4.460413 -1.576412 -3.043643
  C 3.197648 -1.294625 -3.845262
  H 3.263307 -1.828958 -4.789474
  O 5.742397 -1.327055 -1.126870
  H 0.715336 0.096123 1.388805
  H 0.700145 -0.928211 -0.047050
  H 0.533958 0.794388 -0.218964
  H 4.080599 1.237111 1.100795
  H 4.024111 -0.467899 1.522162
  H 2.135386 -0.067017 3.080264
  H 2.076245 1.641877 2.593849
  H 2.317087 -0.241100 -1.831434
  H 4.882505 1.213214 -0.927995
  H 4.525441 -2.638287 -2.797382
  H 5.329688 -1.341305 -3.666219
  H 3.095442 -0.235002 -4.066141
  H 2.304717 -1.653472 -3.339306
  H 6.159220 -0.748013 -0.458810
 26
 43.391788
  C 1.089496 0.010226 0.313823
  C 2.545356 0.178882 0.142729
  C 3.450982 0.429419 1.293544
  C 2.799794 0.659963 2.650450
  H 3.572121 0.861437 3.387156
  C 3.063454 0.060930 -1.147493
  C 4.316237 0.659462 -1.585860
  C 4.599957 -0.717285 -1.709452
  C 4.406533 -1.584177 -2.926608
  C 3.219866 -1.328259 -3.844936
  H 3.326212 -1.960387 -4.723667
  O 5.498420 -1.282503 -0.901727
  H 0.781248 0.062530 1.348419
  H 0.764190 -0.938162 -0.111421
  H 0.561095 0.788582 -0.244719
  H 4.087751 1.288452 1.062907
  H 4.122751 -0.432694 1.375045
  H 2.248085 -0.213998 2.985917
  H 2.131404 1.516292 2.626831
  H 2.348540 -0.207432 -1.917514
  H 4.868004 1.411387 -1.055535
  H 4.420295 -2.625006 -2.602388
  H 5.328397 -1.416976 -3.494169
  H 3.190257 -0.296025 -4.175351
  H 2.272842 -1.594331 -3.378813
  H 5.885181 -0.682124 -0.241703
 26
 47.453533
  C 1.130921 0.006861 0.299529
  C 2.577579 0.153272 0.112762
  C 3.493542 0.392305 1.246822
  C 2.866856 0.639719 2.613054
  H 3.654299 0.823639 3.337328
  C 3.086856 0.022383 -1.199165
  C 4.272161 0.755389 -1.674424
  C 4.501842 -0.644874 -1.672879
  C 4.407685 -1.566239 -2.881206
  C 3.251101 -1.371425 -3.846030
  H 3.396942 -2.041993 -4.691561
  O 5.425422 -1.170345 -0.824158
  H 0.828135 0.071861 1.336267
  H 0.785137 -0.935855 -0.122229
  H 0.612937 0.786891 -0.264745
  H 4.152653 1.233242 1.009956
  H 4.146467 -0.486986 1.318393
  H 2.299959 -0.221779 2.959349
  H 2.218123 1.511449 2.597867
  H 2.336168 -0.238455 -1.938419
  H 4.778826 1.578669 -1.212161
  H 4.426128 -2.587310 -2.514920
  H 5.349698 -1.401834 -3.413337
  H 3.214622 -0.356758 -4.224135
  H 2.297986 -1.636057 -3.398422
  H 5.763440 -0.536366 -0.172029
