 19
 0.000000
  C 0.962092 0.127723 0.409043
  C 2.427462 0.126706 0.391739
  C 3.212000 0.602001 1.545724
  C 2.445554 1.094679 2.762075
  H 3.149663 1.410324 3.527910
  C 3.068462 -0.339807 -0.762572
  C 4.465288 -0.408926 -0.931937
  C 5.083512 -0.852005 -2.054085
  H 4.597560 -1.194304 -2.952149
  H 6.161893 -0.866717 -2.081178
  H 0.541260 0.511707 1.329419
  H 0.585081 -0.883287 0.240540
  H 0.581763 0.707024 -0.435776
  H 3.878308 1.402707 1.200460
  H 3.886126 -0.205856 1.857583
  H 1.821111 0.311455 3.185159
  H 1.813637 1.945572 2.518955
  H 2.449017 -0.671830 -1.585724
  H 5.095766 -0.089848 -0.114270
 19
 0.408283
  C 1.025552 0.108156 0.363443
  C 2.482371 0.193075 0.423943
  C 3.219807 0.659002 1.603915
  C 2.390278 1.110689 2.804845
  H 3.051887 1.434683 3.606343
  C 3.140119 -0.267372 -0.726947
  C 4.515035 -0.403619 -0.920218
  C 4.989221 -0.922258 -2.087247
  H 4.343983 -1.233282 -2.891985
  H 6.052047 -1.006212 -2.247298
  H 0.518490 0.360810 1.274840
  H 0.802315 -0.925663 0.044383
  H 0.645752 0.724396 -0.442199
  H 3.883964 1.482942 1.288637
  H 3.913320 -0.139892 1.917819
  H 1.775725 0.301266 3.189491
  H 1.743941 1.945746 2.548396
  H 2.520331 -0.586488 -1.552239
  H 5.205298 -0.107977 -0.148036
 19
 0.437160
  C 1.019287 0.128973 0.356594
  C 2.476254 0.288182 0.359386
  C 3.209863 0.741158 1.551627
  C 2.402646 0.993153 2.813193
  H 3.068547 1.305572 3.613073
  C 3.149518 -0.072752 -0.809671
  C 4.519864 -0.380765 -0.925283
  C 4.999211 -1.004224 -2.029704
  H 4.356898 -1.231367 -2.865250
  H 6.025121 -1.319293 -2.107547
  H 0.533118 0.574530 1.216166
  H 0.809446 -0.945971 0.360779
  H 0.582642 0.501921 -0.569108
  H 3.754813 1.655713 1.281163
  H 4.002919 0.016541 1.772416
  H 1.884337 0.094225 3.136748
  H 1.670368 1.784793 2.670529
  H 2.549592 -0.232664 -1.697084
  H 5.183740 -0.188816 -0.094959
 19
 4.606854
  C 1.098027 0.098792 0.300782
  C 2.526805 0.431216 0.332088
  C 3.211044 0.864649 1.559012
  C 2.386780 0.913666 2.834017
  H 3.010974 1.254821 3.655632
  C 3.225067 0.180805 -0.850330
  C 4.528855 -0.353067 -0.932190
  C 4.853234 -1.161729 -1.966048
  H 4.173049 -1.311606 -2.788434
  H 5.778788 -1.708840 -1.998944
  H 0.560851 0.403698 1.190651
  H 1.053731 -0.992683 0.217279
  H 0.613710 0.482907 -0.595520
  H 3.635923 1.858410 1.362160
  H 4.091347 0.231040 1.717942
  H 1.997774 -0.068569 3.089702
  H 1.554150 1.608190 2.748276
  H 2.654662 0.178717 -1.771752
  H 5.208928 -0.238480 -0.099940
 19
 10.684003
  C 1.198970 0.053698 0.232876
  C 2.583388 0.539615 0.315962
  C 3.211838 0.959134 1.575395
  C 2.371320 0.853902 2.837075
  H 2.946254 1.214210 3.685998
  C 3.310822 0.374829 -0.865167
  C 4.538801 -0.328605 -0.937950
  C 4.664266 -1.276745 -1.887128
  H 3.940486 -1.370144 -2.679803
  H 5.477697 -1.980155 -1.891566
  H 0.619893 0.232331 1.130782
  H 1.308838 -1.027188 0.078854
  H 0.681740 0.432986 -0.646221
  H 3.538106 1.999222 1.440950
  H 4.149432 0.407208 1.707236
  H 2.086200 -0.175636 3.035191
  H 1.471781 1.461170 2.771793
  H 2.771271 0.481073 -1.800176
  H 5.252170 -0.253149 -0.129944
 19
 18.180325
  C 1.308698 -0.011790 0.168977
  C 2.629166 0.622860 0.302515
  C 3.209044 1.030594 1.586421
  C 2.363297 0.809572 2.828638
  H 2.900465 1.173256 3.701287
  C 3.384013 0.528184 -0.873931
  C 4.536167 -0.307859 -0.944877
  C 4.457048 -1.352282 -1.788292
  H 3.699416 -1.400179 -2.551392
  H 5.171276 -2.156482 -1.769415
  H 0.693595 0.066521 1.056847
  H 1.572377 -1.063744 -0.016060
  H 0.768829 0.325500 -0.712751
  H 3.455014 2.098162 1.498447
  H 4.186178 0.546928 1.705469
  H 2.153417 -0.246448 2.978774
  H 1.423446 1.351846 2.774280
  H 2.867222 0.700120 -1.812923
  H 5.292368 -0.255001 -0.174014
 19
 26.789575
  C 1.434078 -0.101457 0.122440
  C 2.675615 0.668498 0.300207
  C 3.205474 1.084498 1.600454
  C 2.345711 0.789090 2.818076
  H 2.835313 1.173369 3.707660
  C 3.451655 0.647294 -0.872638
  C 4.521990 -0.305879 -0.958411
  C 4.238937 -1.390640 -1.693805
  H 3.461306 -1.388138 -2.437758
  H 4.866631 -2.265385 -1.669896
  H 0.793643 -0.126033 0.993763
  H 1.850108 -1.099566 -0.090854
  H 0.879758 0.176247 -0.773273
  H 3.391003 2.165537 1.536632
  H 4.207058 0.653715 1.727545
  H 2.203167 -0.279820 2.948952
  H 1.372563 1.269699 2.744898
  H 2.953333 0.884015 -1.807015
  H 5.324869 -0.290060 -0.234634
 19
 37.362793
  C 1.540719 -0.146247 0.068854
  C 2.686607 0.717470 0.274839
  C 3.200461 1.126639 1.584113
  C 2.366902 0.731955 2.794542
  H 2.837610 1.113271 3.692827
  C 3.479276 0.745515 -0.897464
  C 4.482918 -0.298415 -0.949285
  C 4.029399 -1.413308 -1.522403
  H 3.299720 -1.397090 -2.322850
  H 4.573623 -2.326996 -1.433188
  H 0.918452 -0.297561 0.924003
  H 2.071871 -1.070978 -0.219162
  H 0.970090 0.079200 -0.826042
  H 3.307647 2.220397 1.556011
  H 4.222705 0.765299 1.686002
  H 2.295893 -0.350017 2.886502
  H 1.361038 1.147284 2.742387
  H 2.998408 0.983358 -1.815654
  H 5.299707 -0.290690 -0.253547
 19
 51.219681
  C 1.649432 -0.221622 0.061366
  C 2.717808 0.709033 0.300984
  C 3.196205 1.150686 1.610147
  C 2.338508 0.747991 2.802643
  H 2.755706 1.173306 3.710905
  C 3.534245 0.808709 -0.874582
  C 4.445476 -0.313101 -0.998599
  C 3.823204 -1.418228 -1.465085
  H 3.114330 -1.381531 -2.276972
  H 4.333258 -2.366351 -1.382039
  H 1.022004 -0.480927 0.900118
  H 2.343323 -1.110746 -0.305716
  H 1.099415 -0.124082 -0.872494
  H 3.266683 2.244304 1.570665
  H 4.229569 0.805869 1.737951
  H 2.309851 -0.331415 2.918327
  H 1.322626 1.118842 2.698907
  H 3.047562 1.140609 -1.788161
  H 5.321574 -0.368931 -0.369362
 19
 64.050770
  C 1.665541 -0.170452 0.047007
  C 2.673581 0.738928 0.294503
  C 3.177234 1.178354 1.610647
  C 2.357359 0.716331 2.806480
  H 2.792057 1.114282 3.719443
  C 3.521516 0.808297 -0.883997
  C 4.395891 -0.321264 -0.957763
  C 3.710093 -1.450190 -1.383493
  H 3.084096 -1.404269 -2.267426
  H 4.206380 -2.402108 -1.263266
  H 1.080817 -0.507164 0.888530
  H 2.593358 -1.229446 -0.537988
  H 1.116022 -0.155037 -0.883201
  H 3.207576 2.273593 1.596280
  H 4.220608 0.859043 1.710275
  H 2.352423 -0.367693 2.880964
  H 1.332425 1.072304 2.743437
  H 3.040491 1.128808 -1.803234
  H 5.276803 -0.386238 -0.335725
 19
 50.749979
  C 1.570135 -0.073079 0.122570
  C 2.611577 0.748097 0.341973
  C 3.185008 1.165569 1.658452
  C 2.336665 0.776534 2.861061
  H 2.782628 1.179248 3.767387
  C 3.437347 0.725895 -0.858672
  C 4.339508 -0.339596 -0.952676
  C 3.742004 -1.553903 -1.482880
  H 3.237245 -1.453357 -2.446874
  H 4.350584 -2.447221 -1.423559
  H 0.997145 -0.412127 0.971213
  H 2.829537 -1.568750 -0.802122
  H 1.056087 -0.137211 -0.813731
  H 3.293552 2.251755 1.627889
  H 4.192633 0.762979 1.764214
  H 2.278927 -0.302875 2.969341
  H 1.328876 1.179551 2.778616
  H 2.948655 1.069738 -1.769426
  H 5.231196 -0.381546 -0.339930
 19
 39.154952
  C 1.465759 -0.034666 0.213128
  C 2.605559 0.651993 0.415599
  C 3.206121 1.083966 1.709948
  C 2.291983 0.887394 2.911253
  H 2.810318 1.194205 3.817003
  C 3.352362 0.634332 -0.830956
  C 4.315447 -0.357100 -0.992830
  C 3.849442 -1.589616 -1.634116
  H 3.336711 -1.433285 -2.586123
  H 4.583637 -2.380358 -1.693161
  H 0.858639 -0.349306 1.042861
  H 3.035951 -1.844868 -0.924089
  H 1.030510 -0.165804 -0.759902
  H 3.444415 2.146311 1.604948
  H 4.153083 0.568610 1.879128
  H 2.012039 -0.154951 3.024868
  H 1.391524 1.488376 2.819555
  H 2.781078 0.914815 -1.712495
  H 5.186613 -0.392749 -0.354443
 19
 30.571392
  C 1.348407 0.072682 0.260655
  C 2.550002 0.669502 0.412686
  C 3.195684 1.076459 1.691450
  C 2.331747 0.865424 2.926922
  H 2.870797 1.201618 3.808781
  C 3.289458 0.521516 -0.820638
  C 4.271056 -0.449909 -0.916925
  C 3.941035 -1.637108 -1.697987
  H 3.539109 -1.410023 -2.685161
  H 4.727960 -2.379274 -1.738379
  H 0.740581 -0.187504 1.110424
  H 3.081757 -2.020343 -1.118488
  H 0.899379 -0.074421 -0.704974
  H 3.430742 2.140282 1.593004
  H 4.148505 0.559332 1.815650
  H 2.090591 -0.185179 3.063879
  H 1.408658 1.435900 2.860908
  H 2.756188 0.789041 -1.728422
  H 5.113118 -0.475545 -0.237643
 19
 22.108588
  C 1.215547 0.220496 0.324543
  C 2.492437 0.672221 0.420273
  C 3.194065 1.041841 1.682009
  C 2.356248 0.883313 2.943941
  H 2.923465 1.234533 3.802244
  C 3.195523 0.412614 -0.809441
  C 4.216489 -0.514735 -0.869403
  C 4.070963 -1.648927 -1.774448
  H 3.718386 -1.363617 -2.765143
  H 4.940279 -2.293847 -1.819585
  H 0.599876 0.058504 1.191847
  H 3.240604 -2.200613 -1.305974
  H 0.757449 0.032368 -0.630088
  H 3.486267 2.091437 1.573305
  H 4.118728 0.472771 1.784614
  H 2.100313 -0.158524 3.118437
  H 1.442715 1.469289 2.885663
  H 2.659246 0.633886 -1.726529
  H 5.006171 -0.530560 -0.130524
 19
 17.616579
  C 1.164713 0.187239 0.430162
  C 2.460091 0.615428 0.470308
  C 3.185661 1.043616 1.692671
  C 2.376716 1.012686 2.978818
  H 2.947392 1.474959 3.778466
  C 3.148060 0.319079 -0.775973
  C 4.132508 -0.644243 -0.810783
  C 4.170408 -1.597476 -1.937813
  H 4.051963 -1.119786 -2.914042
  H 5.034502 -2.254097 -1.914316
  H 0.601485 0.022825 1.330972
  H 3.283469 -2.206049 -1.793404
  H 0.678249 -0.049833 -0.499383
  H 3.520835 2.069854 1.504607
  H 4.095121 0.457279 1.813932
  H 2.154095 -0.007064 3.278146
  H 1.445503 1.563135 2.874428
  H 2.597118 0.510533 -1.688724
  H 4.686884 -0.885638 0.077669
