 19
 0.000000
  C 1.031136 0.117252 0.343262
  C 2.501950 0.121776 0.354383
  C 3.232022 0.597142 1.536605
  H 2.577585 0.919487 2.338790
  C 3.150561 -0.337695 -0.789021
  C 4.538185 -0.407936 -0.964747
  C 5.168877 -0.862615 -2.098565
  C 4.559878 -1.356773 -3.331214
  H 3.476974 -1.366843 -3.357230
  H 6.250985 -0.867589 -2.111012
  H 0.604129 0.489531 1.269434
  H 0.659912 -0.893540 0.165827
  H 0.659839 0.724117 -0.484279
  H 3.887600 1.425423 1.261277
  H 3.887931 -0.190969 1.911124
  H 2.520055 -0.665196 -1.603794
  H 5.162134 -0.079544 -0.146840
  H 4.937349 -2.364944 -3.521520
  H 4.937897 -0.759708 -4.165304
 19
 -0.108332
  C 1.024523 0.116448 0.352973
  C 2.493750 0.146992 0.321610
  C 3.233836 0.691961 1.469714
  H 2.567123 1.084587 2.230626
  C 3.139393 -0.358853 -0.803019
  C 4.528536 -0.479065 -0.937328
  C 5.175931 -0.955159 -2.053607
  C 4.579345 -1.377133 -3.317167
  H 3.498856 -1.302511 -3.351249
  H 6.255375 -1.021675 -2.008214
  H 0.619157 0.493246 1.286063
  H 0.662806 -0.899360 0.183691
  H 0.620195 0.704674 -0.473754
  H 3.916479 1.480716 1.152353
  H 3.856551 -0.083394 1.919687
  H 2.512717 -0.699212 -1.614889
  H 5.141130 -0.192645 -0.094443
  H 4.886558 -2.403272 -3.533229
  H 5.012800 -0.787937 -4.129020
 19
 0.159360
  C 1.011776 0.135602 0.375703
  C 2.477392 0.173503 0.284939
  C 3.237736 0.783431 1.390108
  H 2.581767 1.247930 2.119685
  C 3.115787 -0.380963 -0.818557
  C 4.505580 -0.537317 -0.910140
  C 5.178507 -1.033580 -2.001712
  C 4.615713 -1.390184 -3.300369
  H 3.543795 -1.249111 -3.375453
  H 6.248926 -1.163323 -1.907024
  H 0.643584 0.507258 1.325597
  H 0.643613 -0.878124 0.208730
  H 0.573733 0.731185 -0.429223
  H 3.942029 1.528191 1.020783
  H 3.829639 0.022938 1.902944
  H 2.493253 -0.745238 -1.622976
  H 5.089168 -0.275049 -0.037278
  H 4.872443 -2.426458 -3.532703
  H 5.115068 -0.805629 -4.076921
 19
 1.071977
  C 0.995719 0.143774 0.429998
  C 2.453466 0.143623 0.257675
  C 3.248724 0.803815 1.315543
  H 2.612706 1.325188 2.024401
  C 3.077800 -0.450803 -0.829094
  C 4.471491 -0.604322 -0.889831
  C 5.175350 -1.085951 -1.967163
  C 4.658617 -1.328247 -3.310392
  H 3.600455 -1.119738 -3.419459
  H 6.230112 -1.283706 -1.826264
  H 0.693221 0.500952 1.407447
  H 0.582704 -0.850457 0.250914
  H 0.535319 0.780018 -0.331156
  H 3.962512 1.511947 0.897555
  H 3.823128 0.061515 1.872677
  H 2.460589 -0.858638 -1.616166
  H 5.023483 -0.349480 0.009940
  H 4.872360 -2.359147 -3.602400
  H 5.222410 -0.721349 -4.023024
 19
 3.872434
  C 0.982353 0.167316 0.481880
  C 2.429487 0.076232 0.243322
  C 3.272966 0.820131 1.213225
  H 2.658244 1.397576 1.899445
  C 3.028520 -0.603257 -0.802069
  C 4.427811 -0.715809 -0.861040
  C 5.160185 -1.173946 -1.927210
  C 4.708749 -1.206435 -3.312382
  H 3.685229 -0.872846 -3.435528
  H 6.177784 -1.503298 -1.742855
  H 0.746243 0.632684 1.429942
  H 0.516203 -0.817592 0.421074
  H 0.511277 0.747517 -0.317888
  H 3.953378 1.508307 0.714183
  H 3.855166 0.131408 1.826020
  H 2.415195 -1.109803 -1.530234
  H 4.954449 -0.402542 0.042373
  H 4.838807 -2.211793 -3.721178
  H 5.367870 -0.578596 -3.916610
 19
 12.544861
  C 0.951650 0.131130 0.543012
  C 2.380645 -0.012076 0.228056
  C 3.307243 0.811686 1.084250
  H 2.715038 1.426263 1.765389
  C 2.892042 -0.771317 -0.784177
  C 4.275652 -0.883371 -0.897278
  C 5.101971 -1.289916 -1.901728
  C 4.858758 -1.040054 -3.308206
  H 3.912888 -0.548463 -3.480754
  H 6.055288 -1.798225 -1.629835
  H 0.788436 0.762472 1.399972
  H 0.513217 -0.857034 0.699635
  H 0.398207 0.538705 -0.306692
  H 3.897292 1.514236 0.499291
  H 3.884147 0.199444 1.785352
  H 2.245138 -1.337390 -1.425204
  H 4.755893 -0.484482 0.034121
  H 4.914816 -1.967534 -3.885008
  H 5.679973 -0.416944 -3.699035
 19
 22.360423
  C 0.947432 0.187143 0.668618
  C 2.326785 -0.039251 0.210899
  C 3.346835 0.802357 0.925405
  H 2.815200 1.461571 1.625072
  C 2.786092 -0.860761 -0.791216
  C 4.176592 -0.949003 -0.930717
  C 5.075606 -1.313984 -1.889521
  C 4.993739 -0.945855 -3.307073
  H 4.082326 -0.397716 -3.535172
  H 5.957063 -1.868345 -1.588690
  H 0.896091 0.841721 1.529009
  H 0.473547 -0.764839 0.919405
  H 0.339721 0.613615 -0.132027
  H 3.882272 1.488832 0.278573
  H 3.940497 0.232811 1.641549
  H 2.124818 -1.489634 -1.368203
  H 4.607247 -0.495480 0.016317
  H 5.045226 -1.843433 -3.928069
  H 5.864255 -0.344940 -3.571912
 19
 45.810092
  C 0.945408 0.236937 0.760254
  C 2.286189 0.012768 0.173445
  C 3.433675 0.751569 0.808549
  H 2.990765 1.356289 1.604668
  C 2.624027 -0.848042 -0.834538
  C 3.979084 -1.000137 -1.088290
  C 5.004721 -1.326835 -1.886432
  C 5.115882 -0.965636 -3.312023
  H 4.254565 -0.414101 -3.649485
  H 5.841885 -1.893767 -1.484482
  H 0.968285 0.932149 1.594132
  H 0.516249 -0.696038 1.098694
  H 0.246739 0.638865 -0.000855
  H 3.879149 1.532182 0.195629
  H 4.034132 0.160210 1.535999
  H 1.904479 -1.497752 -1.290447
  H 4.413756 -0.384929 0.002277
  H 5.228200 -1.873764 -3.901888
  H 6.004252 -0.367323 -3.472286
 19
 62.887868
  C 0.937446 0.227462 0.779854
  C 2.272656 0.012685 0.179781
  C 3.506184 0.716904 0.698964
  H 3.178795 1.434153 1.473950
  C 2.542277 -0.936344 -0.787375
  C 3.834627 -1.116205 -1.170681
  C 4.897231 -1.403534 -1.883028
  C 5.179042 -0.875649 -3.257177
  H 4.348283 -0.283788 -3.634217
  H 5.700631 -2.000215 -1.462903
  H 0.954499 0.972632 1.566317
  H 0.554459 -0.705454 1.193594
  H 0.210136 0.547889 0.028546
  H 3.971175 1.413067 -0.011256
  H 4.092091 0.158376 1.475020
  H 1.769411 -1.572235 -1.198376
  H 4.276155 -0.200713 0.132018
  H 5.351795 -1.716162 -3.929731
  H 6.081708 -0.271109 -3.249451
 19
 62.141018
  C 0.951962 0.181242 0.807816
  C 2.293898 -0.006740 0.193572
  C 3.517668 0.742499 0.679720
  H 3.172869 1.498189 1.416005
  C 2.516106 -0.945667 -0.808782
  C 3.736907 -1.194800 -1.318419
  C 4.818824 -1.483436 -1.968945
  C 5.247706 -0.835701 -3.255899
  H 4.494245 -0.142886 -3.618290
  H 5.535097 -2.196165 -1.569005
  H 0.955421 0.947415 1.577874
  H 0.596072 -0.749834 1.253766
  H 0.209507 0.461772 0.057727
  H 3.948198 1.427889 -0.071773
  H 4.084629 0.321325 1.585152
  H 1.688866 -1.540523 -1.173474
  H 4.287637 -0.097076 0.387056
  H 5.408089 -1.607075 -4.006983
  H 6.190448 -0.307048 -3.117897
 19
 64.303445
  C 0.975025 0.130630 0.833072
  C 2.319081 -0.038744 0.219374
  C 3.514322 0.768456 0.720242
  H 3.065737 1.549195 1.357200
  C 2.536154 -0.941230 -0.814991
  C 3.735305 -1.201426 -1.366233
  C 4.795326 -1.497358 -2.044763
  C 5.255923 -0.771798 -3.280108
  H 4.544168 -0.005493 -3.575233
  H 5.465672 -2.286566 -1.715518
  H 0.974491 0.859478 1.637442
  H 0.608975 -0.816891 1.232625
  H 0.241948 0.450725 0.089692
  H 4.011655 1.317881 -0.089947
  H 4.162070 0.538546 1.664074
  H 1.687238 -1.491652 -1.201508
  H 4.169173 -0.187245 0.714349
  H 5.363604 -1.487051 -4.094190
  H 6.229693 -0.315275 -3.108365
 19
 66.412266
  C 1.015670 0.093588 0.883264
  C 2.331703 -0.064912 0.214275
  C 3.547370 0.824350 0.686547
  H 3.025841 1.621089 1.229561
  C 2.505946 -0.942232 -0.851151
  C 3.672328 -1.228106 -1.449666
  C 4.759866 -1.525368 -2.078337
  C 5.314982 -0.767775 -3.252656
  H 4.648962 0.036235 -3.553567
  H 5.375103 -2.358935 -1.752413
  H 1.046452 0.799537 1.706182
  H 0.655098 -0.861330 1.269598
  H 0.264763 0.438508 0.169956
  H 4.032819 1.233846 -0.202250
  H 4.346317 0.750611 1.512763
  H 1.622147 -1.439496 -1.232446
  H 3.860791 -0.259251 0.883095
  H 5.448803 -1.446683 -4.093029
  H 6.290115 -0.354849 -3.000770
 19
 62.964636
  C 1.057203 0.049858 0.951073
  C 2.340777 -0.101041 0.226202
  C 3.579480 0.874240 0.677005
  H 3.020830 1.668183 1.180991
  C 2.470392 -0.951700 -0.881771
  C 3.621674 -1.219358 -1.518030
  C 4.741353 -1.507253 -2.093762
  C 5.356765 -0.743661 -3.230248
  H 4.713787 0.067569 -3.553696
  H 5.327230 -2.353748 -1.752910
  H 1.127151 0.733230 1.790230
  H 0.700235 -0.910866 1.325742
  H 0.288984 0.421802 0.272513
  H 4.045472 1.255543 -0.229536
  H 4.371201 0.761004 1.458727
  H 1.566566 -1.421247 -1.253171
  H 3.540466 -0.319688 0.802502
  H 5.527291 -1.413857 -4.069172
  H 6.319521 -0.342449 -2.924487
 19
 51.593546
  C 1.116032 0.017786 1.049380
  C 2.390053 -0.124261 0.288347
  C 3.530665 0.977817 0.603767
  H 2.969857 1.799315 1.056086
  C 2.457777 -0.922780 -0.895541
  C 3.583252 -1.200455 -1.564465
  C 4.698009 -1.516735 -2.131648
  C 5.408053 -0.721341 -3.186932
  H 4.835759 0.159197 -3.465750
  H 5.209310 -2.429189 -1.837622
  H 1.225251 0.659649 1.917656
  H 0.750246 -0.953598 1.385297
  H 0.339856 0.434376 0.406232
  H 3.968552 1.305996 -0.335053
  H 4.322300 0.809273 1.343072
  H 1.525649 -1.338871 -1.267348
  H 3.332549 -0.475867 0.818350
  H 5.560182 -1.341312 -4.071306
  H 6.388575 -0.419546 -2.817091
 19
 26.608115
  C 1.229560 -0.020997 1.132079
  C 2.600503 -0.180254 0.501471
  C 3.381333 1.141636 0.426859
  H 2.768716 1.955319 0.800042
  C 2.551795 -0.928821 -0.794651
  C 3.573651 -1.232020 -1.545556
  C 4.575793 -1.569970 -2.314702
  C 5.491938 -0.658848 -3.026315
  H 5.238931 0.383085 -2.868981
  H 4.772647 -2.631900 -2.446247
  H 1.314163 0.520977 2.072690
  H 0.769249 -0.986964 1.330166
  H 0.567671 0.551633 0.483528
  H 3.670374 1.378748 -0.589564
  H 4.283029 1.105440 1.030409
  H 1.565899 -1.265350 -1.100573
  H 3.191511 -0.868634 1.126146
  H 5.470354 -0.902804 -4.087943
  H 6.516496 -0.835310 -2.699062
