13

C 0.993261 0.133595 0.38395
C 2.471599 0.140321 0.400275
H 3.025201175597317 0.4817598055035812 1.2498891319859298
C 3.094519 -0.322246 -0.751479
C 4.470156 -0.413577 -0.979476
C 5.130316 -0.867893 -2.111975
H 4.76345049603915 -1.2421175702806255 -3.044855310115844
H 6.20031104457509 -0.8690311131335491 -2.1150261118048337
H 0.545013 0.501552 1.299954
H 0.628787 -0.880681 0.214986
H 0.628483 0.748957 -0.439708
H 2.434694 -0.63959 -1.541385
H 5.104736 -0.086787 -0.165738
