13

C 1.047195 -0.110187 -0.038601
C 2.543128 -0.135676 -0.038755
C 3.259315 -1.264963 -0.045525
C 4.696951 -1.288758 -0.045665
C 5.418234 -2.423551 -0.052468
H 6.488113485472303 -2.439609573409241 -0.05256173142398501
H 0.685395 0.916553 -0.032449
H 0.651444 -0.610947 0.844708
H 0.651443 -0.600329 -0.927846
H 3.044049 0.823296 -0.033011
H 2.749657 -2.220545 -0.051251
H 5.201165 -0.330537 -0.039927
H 4.914496 -3.381932 -0.058213
