 20
 0.000000
  C 1.007416 -0.072392 0.046293
  C 2.503543 -0.082506 0.026308
  C 3.219934 -0.594857 -0.980192
  C 4.657960 -0.605048 -1.000293
  C 5.377938 -1.120243 -2.011993
  C 6.816377 -1.130053 -2.031120
  C 7.533707 -1.642326 -3.036007
  C 9.023536 -1.662183 -3.074630
  H 0.644499 0.393626 0.961745
  H 0.612286 -1.087587 0.007439
  H 0.612224 0.493463 -0.797439
  H 3.003000 0.353070 0.881905
  H 2.709183 -1.028320 -1.831631
  H 5.163075 -0.170550 -0.146403
  H 4.873567 -1.555208 -2.866028
  H 7.323702 -0.695528 -1.178270
  H 7.034267 -2.078855 -3.892197
  H 9.458795 -1.208660 -2.185530
  H 9.382267 -1.116657 -3.949018
  H 9.382123 -2.690167 -3.146390
 20
 2.542429
  C 1.050375 -0.108351 0.094336
  C 2.543926 -0.119175 0.031094
  C 3.238752 -0.621883 -0.987406
  C 4.673700 -0.631928 -1.055384
  C 5.355033 -1.035765 -2.131095
  C 6.786134 -0.984920 -2.162127
  C 7.526843 -1.528109 -3.123853
  C 8.988588 -1.683435 -2.982126
  H 0.701201 0.350717 1.015594
  H 0.657508 -1.124296 0.045127
  H 0.633862 0.447337 -0.746438
  H 3.070152 0.312833 0.872398
  H 2.713181 -1.054571 -1.828919
  H 5.193548 -0.222356 -0.201938
  H 4.842504 -1.447762 -2.987600
  H 7.271578 -0.561887 -1.293243
  H 7.065041 -2.020146 -3.966091
  H 9.368487 -1.135537 -2.128456
  H 9.532320 -1.389807 -3.871343
  H 9.125724 -2.742830 -2.797520
 20
 5.625148
  C 1.087424 -0.232674 0.133700
  C 2.578466 -0.165793 0.038387
  C 3.277010 -0.604212 -1.012185
  C 4.710490 -0.525297 -1.119541
  C 5.370483 -0.794461 -2.249499
  C 6.792776 -0.789322 -2.282669
  C 7.511883 -1.445560 -3.183283
  C 8.912382 -1.814699 -2.878708
  H 0.735270 0.183598 1.075489
  H 0.744644 -1.264836 0.063186
  H 0.625685 0.322677 -0.682310
  H 3.100529 0.272026 0.878794
  H 2.755732 -1.044291 -1.852160
  H 5.239739 -0.158359 -0.249637
  H 4.840628 -1.160707 -3.121295
  H 7.289173 -0.364643 -1.416565
  H 7.038679 -1.936720 -4.023105
  H 9.348164 -1.133937 -2.142610
  H 9.560453 -1.878798 -3.753071
  H 8.814578 -2.795225 -2.392389
 20
 9.083627
  C 1.162901 -0.386571 0.171993
  C 2.649074 -0.246706 0.031118
  C 3.319232 -0.518949 -1.091699
  C 4.745442 -0.389180 -1.232608
  C 5.375394 -0.527248 -2.397180
  C 6.796569 -0.606689 -2.408201
  C 7.463051 -1.468939 -3.156688
  C 8.790268 -1.938146 -2.712720
  H 0.834933 -0.113992 1.175954
  H 0.851804 -1.416604 -0.026806
  H 0.650064 0.251698 -0.541947
  H 3.191543 0.096644 0.903682
  H 2.779944 -0.864693 -1.963724
  H 5.308799 -0.123688 -0.345929
  H 4.833294 -0.809038 -3.289344
  H 7.310655 -0.122052 -1.578802
  H 6.971529 -2.020773 -3.944845
  H 9.355643 -1.149850 -2.217372
  H 9.386666 -2.371715 -3.507549
  H 8.540713 -2.689382 -1.961943
 20
 13.548422
  C 1.249015 -0.482687 0.201523
  C 2.727225 -0.337364 0.022308
  C 3.352692 -0.483876 -1.148475
  C 4.776650 -0.346313 -1.327450
  C 5.367527 -0.389039 -2.518743
  C 6.790499 -0.502023 -2.525725
  C 7.415181 -1.484898 -3.145302
  C 8.670372 -1.985481 -2.552266
  H 0.963734 -0.333371 1.238510
  H 0.919878 -1.474288 -0.107625
  H 0.715811 0.244479 -0.410877
  H 3.304124 -0.098632 0.906511
  H 2.780205 -0.726928 -2.032311
  H 5.367084 -0.168963 -0.441429
  H 4.806219 -0.596062 -3.417606
  H 7.314229 0.036014 -1.742315
  H 6.917483 -2.090085 -3.893729
  H 9.332206 -1.175480 -2.248923
  H 9.209823 -2.679992 -3.185485
  H 8.309418 -2.480353 -1.644206
 20
 19.546926
  C 1.341339 -0.565342 0.226666
  C 2.815721 -0.412988 0.008137
  C 3.400835 -0.483370 -1.189473
  C 4.815371 -0.326506 -1.407975
  C 5.361407 -0.278092 -2.622967
  C 6.790653 -0.401199 -2.639810
  C 7.374678 -1.477563 -3.143113
  C 8.526107 -2.024137 -2.390345
  H 1.092162 -0.482950 1.276116
  H 0.996382 -1.534562 -0.135299
  H 0.792094 0.200977 -0.318183
  H 3.423148 -0.229778 0.886860
  H 2.797688 -0.673751 -2.069970
  H 5.434256 -0.200556 -0.531156
  H 4.777710 -0.442890 -3.520254
  H 7.325834 0.173009 -1.889796
  H 6.878715 -2.107737 -3.867606
  H 9.269328 -1.266281 -2.155787
  H 9.007061 -2.871017 -2.866500
  H 8.029926 -2.313480 -1.456577
 20
 26.435100
  C 1.456813 -0.665194 0.248366
  C 2.918144 -0.486712 -0.019550
  C 3.450799 -0.451441 -1.242766
  C 4.863566 -0.296712 -1.507290
  C 5.365437 -0.188336 -2.739837
  C 6.796626 -0.330034 -2.764540
  C 7.314734 -1.496815 -3.110538
  C 8.351312 -2.039100 -2.205752
  H 1.254100 -0.688229 1.316683
  H 1.096267 -1.592995 -0.191622
  H 0.883718 0.150404 -0.193587
  H 3.562390 -0.382421 0.843817
  H 2.809513 -0.558563 -2.109274
  H 5.511477 -0.221965 -0.644069
  H 4.757655 -0.292994 -3.624990
  H 7.345350 0.285509 -2.061384
  H 6.791088 -2.177378 -3.767859
  H 9.172193 -1.348151 -2.030830
  H 8.742267 -3.005570 -2.508378
  H 7.749185 -2.116278 -1.279979
 20
 34.419492
  C 1.576825 -0.745912 0.264142
  C 3.029308 -0.558145 -0.047198
  C 3.518290 -0.468510 -1.284794
  C 4.922998 -0.315190 -1.591206
  C 5.379703 -0.120551 -2.834367
  C 6.821065 -0.256863 -2.890192
  C 7.244117 -1.504692 -3.055625
  C 8.149747 -2.045786 -2.020012
  H 1.414190 -0.829538 1.332981
  H 1.194662 -1.644416 -0.214409
  H 0.992308 0.096928 -0.108493
  H 3.702729 -0.495086 0.795088
  H 2.846337 -0.529416 -2.132939
  H 5.597317 -0.286649 -0.747036
  H 4.742189 -0.152222 -3.708031
  H 7.412639 0.431872 -2.290709
  H 6.647686 -2.214888 -3.610170
  H 8.992772 -1.403815 -1.800259
  H 8.491498 -3.059489 -2.208091
  H 7.432609 -2.005431 -1.167733
 20
 43.142125
  C 1.687868 -0.782030 0.294975
  C 3.131904 -0.649783 -0.070998
  C 3.569372 -0.491470 -1.320515
  C 4.964504 -0.373660 -1.678176
  C 5.382636 -0.134733 -2.931429
  C 6.836403 -0.237112 -3.001723
  C 7.213725 -1.517351 -3.008972
  C 7.959670 -2.011226 -1.834071
  H 1.569163 -0.953988 1.358056
  H 1.229337 -1.608916 -0.242090
  H 1.141928 0.122614 0.029761
  H 3.844857 -0.683182 0.742301
  H 2.858752 -0.466895 -2.141044
  H 5.666919 -0.382649 -0.856170
  H 4.721762 -0.100368 -3.789281
  H 7.428746 0.505286 -2.478290
  H 6.602508 -2.249059 -3.520124
  H 8.765505 -1.357616 -1.519817
  H 8.307847 -3.035150 -1.906260
  H 7.101743 -1.910577 -1.113115
 20
 54.824066
  C 1.789870 -0.834705 0.325432
  C 3.219128 -0.633979 -0.069268
  C 3.631074 -0.516903 -1.333390
  C 5.016626 -0.385464 -1.720985
  C 5.411985 -0.156095 -2.985400
  C 6.875758 -0.215656 -3.056512
  C 7.199714 -1.521382 -3.000655
  C 7.741169 -2.005681 -1.712032
  H 1.695014 -0.961560 1.402174
  H 1.374741 -1.712774 -0.164218
  H 1.186409 0.023669 0.025131
  H 3.940961 -0.583135 0.732703
  H 2.906207 -0.542539 -2.137901
  H 5.715820 -0.338551 -0.901127
  H 4.747290 -0.165761 -3.831573
  H 7.450156 0.520317 -2.504789
  H 6.579974 -2.233586 -3.537937
  H 8.539362 -1.392592 -1.313663
  H 8.011494 -3.059362 -1.678636
  H 6.783933 -1.783803 -1.127034
 20
 67.347103
  C 1.850870 -0.848059 0.357416
  C 3.271322 -0.614835 -0.046905
  C 3.682944 -0.567682 -1.315720
  C 5.063958 -0.392443 -1.712389
  C 5.455124 -0.221822 -2.993908
  C 6.914050 -0.190969 -3.061977
  C 7.219518 -1.516390 -3.004572
  C 7.540829 -2.001172 -1.652576
  H 1.757136 -0.906026 1.439812
  H 1.475547 -1.772873 -0.071923
  H 1.213579 -0.040026 0.000340
  H 3.988503 -0.479526 0.752922
  H 2.961956 -0.693987 -2.117946
  H 5.727846 -0.198079 -0.885825
  H 4.810690 -0.383804 -3.840857
  H 7.445362 0.524061 -2.441801
  H 6.639221 -2.199826 -3.618905
  H 8.325149 -1.442103 -1.153417
  H 7.711907 -3.069692 -1.564651
  H 6.522661 -1.666026 -1.204969
 20
 78.730863
  C 1.876835 -0.854082 0.378595
  C 3.292096 -0.588646 -0.025507
  C 3.716323 -0.607135 -1.290807
  C 5.098183 -0.410642 -1.687987
  C 5.487879 -0.261878 -2.983885
  C 6.938353 -0.192431 -3.051274
  C 7.228711 -1.534148 -2.984552
  C 7.389717 -2.003385 -1.609113
  H 1.772690 -0.847727 1.461254
  H 1.543994 -1.819581 0.005285
  H 1.211605 -0.096431 -0.034253
  H 3.994249 -0.379999 0.771646
  H 3.009996 -0.815871 -2.088716
  H 5.725802 -0.098061 -0.863578
  H 4.873470 -0.532874 -3.824010
  H 7.442584 0.511952 -2.394877
  H 6.701624 -2.204769 -3.657109
  H 8.143331 -1.481153 -1.030307
  H 7.483510 -3.077813 -1.491807
  H 6.323799 -1.563949 -1.261202
 20
 88.972598
  C 1.876613 -0.853307 0.390702
  C 3.288474 -0.565754 -0.010389
  C 3.725251 -0.624044 -1.268480
  C 5.111020 -0.413981 -1.665535
  C 5.509290 -0.296303 -2.977720
  C 6.945353 -0.217728 -3.015410
  C 7.246600 -1.570112 -2.941123
  C 7.295650 -2.019575 -1.576320
  H 1.762879 -0.811727 1.472758
  H 1.574159 -1.839371 0.050219
  H 1.195086 -0.129241 -0.052785
  H 3.977979 -0.314178 0.784953
  H 3.034458 -0.886663 -2.062834
  H 5.713068 -0.009812 -0.853158
  H 4.927097 -0.643362 -3.815307
  H 7.421420 0.487827 -2.335133
  H 6.759856 -2.233521 -3.650038
  H 8.002963 -1.517635 -0.926247
  H 7.337246 -3.094943 -1.446847
  H 6.146090 -1.468271 -1.280666
 20
 94.271471
  C 1.828558 -0.828194 0.396498
  C 3.247906 -0.550232 0.009536
  C 3.702437 -0.636819 -1.237297
  C 5.093313 -0.425505 -1.622044
  C 5.517306 -0.317858 -2.959831
  C 6.936017 -0.247403 -2.976078
  C 7.273812 -1.611218 -2.901133
  C 7.308632 -2.065112 -1.570141
  H 1.697740 -0.754762 1.473626
  H 1.531281 -1.827265 0.078410
  H 1.152727 -0.115862 -0.079037
  H 3.923864 -0.274631 0.808906
  H 3.026173 -0.917812 -2.036137
  H 5.677955 0.052130 -0.825127
  H 4.965461 -0.718989 -3.795046
  H 7.379837 0.447564 -2.267390
  H 6.825818 -2.274318 -3.631686
  H 7.929029 -1.542174 -0.854003
  H 7.367532 -3.136596 -1.447952
  H 5.971567 -1.410416 -1.258632
