 12
 0.000000
  H 1.359686 0.170662 0.476644
  C 2.440242 0.145381 0.413406
  C 3.226223 0.603125 1.551213
  C 2.461965 1.082380 2.744363
  H 3.129673 1.401888 3.539603
  C 3.006760 -0.315442 -0.732615
  H 4.074987 -0.369940 -0.868090
  H 3.934297 1.381419 1.207427
  H 3.934738 -0.196272 1.841412
  H 1.799775 0.304213 3.131327
  H 1.799529 1.911871 2.485595
  H 2.379838 -0.641930 -1.544614
 12
 5.385236
  H 1.399801 0.168155 0.470377
  C 2.473566 0.137010 0.392509
  C 3.228287 0.601893 1.547793
  C 2.450149 1.074786 2.725561
  H 3.099990 1.398878 3.532537
  C 3.063578 -0.313941 -0.728544
  H 4.101735 -0.401215 -0.945081
  H 3.951919 1.372152 1.220025
  H 3.952371 -0.180568 1.843637
  H 1.780105 0.294004 3.098441
  H 1.779973 1.896562 2.455106
  H 2.270223 -0.570713 -1.367490
 12
 15.625051
  H 1.417974 0.159512 0.447815
  C 2.502276 0.129227 0.372271
  C 3.233630 0.603582 1.550117
  C 2.434825 1.072282 2.719756
  H 3.067801 1.399463 3.535824
  C 3.100685 -0.321406 -0.745714
  H 4.123098 -0.435058 -1.024829
  H 3.971413 1.372784 1.238158
  H 3.972308 -0.167155 1.855764
  H 1.766058 0.289799 3.078991
  H 1.765760 1.886262 2.439618
  H 2.186280 -0.509997 -1.217128
 12
 28.952530
  H 1.450801 0.158623 0.447775
  C 2.510890 0.124938 0.360552
  C 3.231633 0.604484 1.549712
  C 2.425707 1.067823 2.709010
  H 3.050629 1.395597 3.527818
  C 3.126055 -0.327193 -0.758239
  H 4.143270 -0.458465 -1.077076
  H 3.965029 1.369935 1.247322
  H 3.966041 -0.157716 1.857160
  H 1.756144 0.278480 3.063937
  H 1.756230 1.884823 2.423109
  H 2.139401 -0.456698 -1.086912
 12
 40.758666
  H 1.452348 0.159961 0.465196
  C 2.530199 0.102745 0.311537
  C 3.272396 0.604761 1.573426
  C 2.399905 1.065417 2.700755
  H 3.018168 1.402397 3.527953
  C 3.144258 -0.324436 -0.758038
  H 4.123010 -0.483051 -1.147741
  H 3.972269 1.395556 1.272076
  H 3.985670 -0.168100 1.889470
  H 1.744417 0.270024 3.052331
  H 1.748302 1.884878 2.400383
  H 2.104803 -0.417161 -1.001832
 12
 44.551722
  H 1.485192 0.195155 0.523927
  C 2.551042 0.098609 0.301317
  C 3.294987 0.617826 1.591416
  C 2.371096 1.059261 2.686370
  H 2.985564 1.395806 3.522857
  C 3.181291 -0.327477 -0.762168
  H 4.115381 -0.515589 -1.238716
  H 3.955304 1.427809 1.265606
  H 3.956043 -0.190054 1.916604
  H 1.739851 0.246917 3.044834
  H 1.739703 1.892698 2.381976
  H 2.081119 -0.394399 -0.918501
 12
 48.774402
  H 1.500281 0.199085 0.538527
  C 2.547672 0.096474 0.290581
  C 3.297610 0.621639 1.594134
  C 2.359181 1.058565 2.686101
  H 2.961423 1.397809 3.527987
  C 3.197697 -0.321131 -0.751249
  H 4.099851 -0.529481 -1.273335
  H 3.936586 1.446344 1.263704
  H 3.954322 -0.211441 1.929936
  H 1.742138 0.252242 3.036182
  H 1.733584 1.883215 2.382494
  H 2.071826 -0.372062 -0.874651
 12
 53.347132
  H 1.491979 0.211376 0.560194
  C 2.558048 0.100949 0.295295
  C 3.303183 0.622638 1.593270
  C 2.356591 1.057627 2.681676
  H 2.945081 1.393800 3.516080
  C 3.215805 -0.320994 -0.749998
  H 4.093480 -0.541305 -1.299815
  H 3.926072 1.440390 1.264722
  H 3.937774 -0.200717 1.924260
  H 1.722153 0.226106 3.040505
  H 1.725266 1.896331 2.370088
  H 2.066618 -0.350881 -0.808623
 12
 57.155417
  H 1.487174 0.214723 0.558494
  C 2.549247 0.104979 0.292749
  C 3.295924 0.622426 1.593248
  C 2.345630 1.054713 2.681945
  H 2.935020 1.391377 3.529030
  C 3.215144 -0.322346 -0.756513
  H 4.096248 -0.546830 -1.301241
  H 3.926528 1.451140 1.265248
  H 3.926449 -0.200156 1.924488
  H 1.719377 0.234081 3.028566
  H 1.718942 1.887015 2.371861
  H 2.051092 -0.341735 -0.759525
 12
 60.497915
  H 1.479260 0.231602 0.560971
  C 2.542697 0.105026 0.291071
  C 3.289902 0.619486 1.592663
  C 2.338415 1.052824 2.680390
  H 2.927786 1.392209 3.531264
  C 3.213304 -0.319186 -0.759425
  H 4.101965 -0.538833 -1.294114
  H 3.918465 1.446451 1.265288
  H 3.923144 -0.201074 1.927613
  H 1.713275 0.233448 3.026169
  H 1.711247 1.883589 2.367263
  H 2.032914 -0.340362 -0.712586
 12
 63.502780
  H 1.464906 0.264178 0.554101
  C 2.529446 0.107814 0.288218
  C 3.282834 0.610721 1.588662
  C 2.333981 1.050035 2.679472
  H 2.925045 1.386962 3.529433
  C 3.210211 -0.306261 -0.757604
  H 4.116501 -0.502227 -1.270061
  H 3.913146 1.432536 1.260279
  H 3.913575 -0.210518 1.926868
  H 1.710165 0.238123 3.024887
  H 1.704878 1.889477 2.363847
  H 2.012039 -0.377167 -0.654372
 12
 65.271847
  H 1.469558 0.316948 0.549011
  C 2.531202 0.127560 0.282847
  C 3.277663 0.607716 1.589996
  C 2.324134 1.049532 2.678488
  H 2.908749 1.377629 3.534770
  C 3.213409 -0.285819 -0.767272
  H 4.118157 -0.473383 -1.285232
  H 3.915930 1.427557 1.267030
  H 3.903225 -0.216460 1.935295
  H 1.687559 0.236572 3.015727
  H 1.709102 1.887867 2.363499
  H 1.983632 -0.452608 -0.561499
 12
 65.085404
  H 1.453498 0.377266 0.513308
  C 2.519290 0.145441 0.291054
  C 3.269407 0.603853 1.592455
  C 2.314913 1.041964 2.683752
  H 2.899875 1.359791 3.544573
  C 3.218036 -0.256509 -0.764648
  H 4.108060 -0.461641 -1.299817
  H 3.906776 1.424770 1.271485
  H 3.893626 -0.220259 1.940758
  H 1.675473 0.229308 3.014076
  H 1.707820 1.889308 2.375054
  H 1.992467 -0.528512 -0.468301
 12
 62.282726
  H 1.458587 0.442810 0.472579
  C 2.524134 0.163824 0.302571
  C 3.265582 0.603022 1.598397
  C 2.299093 1.030785 2.686309
  H 2.876235 1.326993 3.560394
  C 3.217454 -0.210463 -0.776196
  H 4.068495 -0.456868 -1.355025
  H 3.904797 1.427251 1.291851
  H 3.883298 -0.225318 1.951454
  H 1.650985 0.217915 2.995511
  H 1.708488 1.891938 2.386410
  H 2.016713 -0.633051 -0.320154
