 17
 0.000000
  H 1.437019 0.108604 0.323998
  C 2.517085 0.110176 0.327190
  C 3.186193 0.597673 1.535866
  H 2.471682 0.901767 2.291019
  C 3.147690 -0.346955 -0.808552
  C 4.537827 -0.407932 -0.960823
  C 5.212280 -0.863352 -2.098525
  C 4.568594 -1.355580 -3.329691
  H 3.489999 -1.338498 -3.289163
  O 6.512676 -0.879233 -2.138294
  H 3.838750 1.441798 1.301928
  H 3.839612 -0.172041 1.952490
  H 2.520995 -0.674506 -1.623139
  H 5.147396 -0.075151 -0.130233
  H 4.915689 -2.370244 -3.530709
  H 4.916962 -0.760078 -4.174956
  H 6.962679 -0.558130 -1.336169
 17
 13.184296
  H 1.384461 0.143446 0.410903
  C 2.461494 0.148766 0.423236
  C 3.134650 0.632653 1.622857
  H 2.422341 0.938019 2.381415
  C 3.155578 -0.348545 -0.812404
  C 4.520543 -0.400201 -0.941669
  C 5.263154 -0.899247 -2.188143
  C 4.609983 -1.386753 -3.407543
  H 3.529313 -1.365203 -3.356284
  O 6.555485 -0.909563 -2.213723
  H 3.788139 1.475871 1.385979
  H 3.789184 -0.138392 2.036648
  H 2.530087 -0.675630 -1.625616
  H 5.128608 -0.068613 -0.114277
  H 4.951133 -2.402790 -3.610550
  H 4.952646 -0.791837 -4.255233
  H 6.999655 -0.585940 -1.405129
 17
 39.805996
  H 1.325434 0.144979 0.422512
  C 2.399481 0.171548 0.483201
  C 3.107697 0.647457 1.657130
  H 2.413556 0.959301 2.433679
  C 3.165359 -0.357769 -0.832230
  C 4.512725 -0.380323 -0.892431
  C 5.328995 -0.928702 -2.260839
  C 4.620528 -1.399311 -3.442370
  H 3.542452 -1.353933 -3.336956
  O 6.611110 -0.921163 -2.237718
  H 3.757284 1.483348 1.405854
  H 3.761799 -0.125457 2.055562
  H 2.513026 -0.674341 -1.615677
  H 5.157592 -0.063790 -0.105425
  H 4.928787 -2.421939 -3.661725
  H 4.933366 -0.811267 -4.305461
  H 7.046536 -0.591070 -1.408850
 17
 72.217180
  H 1.278881 0.163052 0.467255
  C 2.341935 0.201072 0.556520
  C 3.065847 0.669503 1.712542
  H 2.381517 0.981890 2.490794
  C 3.169925 -0.355948 -0.828572
  C 4.486907 -0.359840 -0.842115
  C 5.384028 -0.961980 -2.343643
  C 4.650531 -1.420549 -3.494737
  H 3.580290 -1.362392 -3.357655
  O 6.650264 -0.945675 -2.298515
  H 3.720572 1.512179 1.453344
  H 3.724958 -0.113760 2.109536
  H 2.503651 -0.669733 -1.605649
  H 5.156197 -0.047446 -0.066533
  H 4.941917 -2.451733 -3.722504
  H 4.946799 -0.832213 -4.370269
  H 7.078002 -0.615191 -1.469556
 17
 103.628387
  H 1.232090 0.180389 0.511228
  C 2.286758 0.229899 0.628701
  C 3.016575 0.696732 1.778776
  H 2.331329 1.010874 2.560237
  C 3.164303 -0.344554 -0.798014
  C 4.457941 -0.332739 -0.772577
  C 5.446464 -0.999070 -2.436106
  C 4.686817 -1.447743 -3.564034
  H 3.618860 -1.378931 -3.399716
  O 6.703473 -0.979211 -2.381959
  H 3.669984 1.535168 1.519385
  H 3.674460 -0.083340 2.173575
  H 2.490279 -0.656322 -1.569535
  H 5.151884 -0.028441 -0.016646
  H 4.962580 -2.478727 -3.799241
  H 4.967321 -0.864007 -4.444322
  H 7.130415 -0.651906 -1.559717
 17
 130.798660
  H 1.175205 0.181838 0.562383
  C 2.234668 0.250473 0.704748
  C 2.958902 0.744112 1.863533
  H 2.256327 1.060846 2.635102
  C 3.147404 -0.336626 -0.727131
  C 4.422546 -0.308173 -0.675270
  C 5.514981 -1.042775 -2.538061
  C 4.733245 -1.475792 -3.669417
  H 3.663712 -1.396881 -3.490444
  O 6.765360 -1.031346 -2.491584
  H 3.605012 1.588925 1.603359
  H 3.621437 -0.022027 2.279334
  H 2.479657 -0.655735 -1.493670
  H 5.129822 -0.015580 0.056626
  H 4.995022 -2.508600 -3.918225
  H 5.009183 -0.886207 -4.548842
  H 7.197482 -0.717611 -1.673226
 17
 135.549036
  H 1.210497 0.118806 0.501483
  C 2.260602 0.216285 0.713533
  C 2.779671 0.767589 1.965843
  H 1.968466 1.009782 2.643541
  C 3.124081 -0.196031 -0.391068
  C 4.433928 -0.077583 -0.351211
  C 5.635808 -1.132071 -2.742639
  C 4.770881 -1.537155 -3.827911
  H 3.727740 -1.374690 -3.592701
  O 6.900046 -1.224942 -2.828538
  H 3.365213 1.670502 1.790673
  H 3.449044 0.057804 2.452558
  H 2.550190 -0.540180 -1.244629
  H 5.230850 0.204662 0.292187
  H 4.943097 -2.590767 -4.054708
  H 5.040647 -0.993738 -4.735625
  H 7.423807 -0.918876 -2.053052
 17
 140.008823
  H 1.167500 0.124027 0.583699
  C 2.224542 0.241604 0.805654
  C 2.658005 0.845025 2.055494
  H 1.815707 1.095855 2.682846
  C 3.118279 -0.186710 -0.227012
  C 4.438677 -0.078691 -0.179375
  C 5.704322 -1.179641 -2.865837
  C 4.812933 -1.565417 -3.967088
  H 3.777539 -1.408874 -3.713746
  O 6.966675 -1.292404 -3.022744
  H 3.237616 1.747342 1.875590
  H 3.319351 0.171376 2.591519
  H 2.612928 -0.570331 -1.105190
  H 5.254992 0.192789 0.446886
  H 4.980124 -2.616533 -4.220750
  H 5.070114 -0.997123 -4.867305
  H 7.513694 -1.018110 -2.260222
 17
 141.841506
  H 1.144980 0.128036 0.625662
  C 2.187292 0.251469 0.879414
  C 2.536088 0.909909 2.127910
  H 1.661701 1.149403 2.710888
  C 3.133116 -0.181376 -0.088697
  C 4.446674 -0.056227 -0.020940
  C 5.764826 -1.218251 -2.975794
  C 4.840507 -1.577640 -4.064307
  H 3.799416 -1.408247 -3.778365
  O 7.019063 -1.361836 -3.214131
  H 3.098746 1.824835 1.946089
  H 3.211093 0.277619 2.711464
  H 2.706860 -0.593526 -0.995797
  H 5.283806 0.174147 0.593018
  H 4.986794 -2.628151 -4.331253
  H 5.080794 -0.997619 -4.958352
  H 7.604920 -1.125424 -2.469780
 17
 142.858639
  H 1.131498 0.109510 0.630099
  C 2.157217 0.242683 0.941107
  C 2.434660 0.973562 2.172039
  H 1.526923 1.212409 2.708816
  C 3.154994 -0.203723 0.048809
  C 4.456711 -0.048719 0.157002
  C 5.822864 -1.251774 -3.073609
  C 4.847903 -1.568896 -4.130420
  H 3.835988 -1.385051 -3.804015
  O 7.060629 -1.423162 -3.389325
  H 2.975432 1.902129 1.974603
  H 3.109194 0.392097 2.805145
  H 2.783492 -0.629322 -0.883289
  H 5.305811 0.144713 0.750148
  H 4.959018 -2.614009 -4.421042
  H 5.065296 -0.977216 -5.021529
  H 7.686819 -1.226073 -2.666109
 17
 142.709501
  H 1.120273 0.047563 0.662023
  C 2.130424 0.217500 1.012966
  C 2.339846 1.049305 2.189119
  H 1.404734 1.262533 2.695443
  C 3.185054 -0.232523 0.182889
  C 4.474946 -0.064681 0.335962
  C 5.871443 -1.289553 -3.165931
  C 4.847361 -1.540758 -4.196800
  H 3.849681 -1.331111 -3.825540
  O 7.092577 -1.484246 -3.535124
  H 2.812836 1.999234 1.934624
  H 3.044884 0.559657 2.866998
  H 2.859262 -0.673773 -0.758971
  H 5.344558 0.079686 0.932026
  H 4.910485 -2.580086 -4.520302
  H 5.052485 -0.931021 -5.076490
  H 7.747783 -1.323549 -2.825027
 17
 143.138579
  H 1.118398 0.061700 0.659193
  C 2.109092 0.238361 1.058908
  C 2.236088 1.089602 2.234470
  H 1.269877 1.276576 2.695870
  C 3.209997 -0.193061 0.298269
  C 4.496498 -0.031554 0.505866
  C 5.916320 -1.334052 -3.264374
  C 4.846679 -1.538202 -4.256765
  H 3.878063 -1.304609 -3.844647
  O 7.116439 -1.554836 -3.690345
  H 2.680732 2.052680 1.988243
  H 2.929709 0.628517 2.948641
  H 2.943333 -0.630276 -0.670212
  H 5.359873 0.080231 1.100654
  H 4.866013 -2.579404 -4.598277
  H 5.036144 -0.920193 -5.136493
  H 7.805324 -1.410105 -3.010644
 17
 142.286152
  H 1.114743 0.002893 0.700525
  C 2.077582 0.223425 1.130660
  C 2.154597 1.170465 2.242789
  H 1.183904 1.320321 2.698094
  C 3.223251 -0.222427 0.441277
  C 4.493400 -0.057171 0.690621
  C 5.940715 -1.356920 -3.357117
  C 4.844807 -1.505488 -4.332592
  H 3.887112 -1.258142 -3.894021
  O 7.124023 -1.590208 -3.814511
  H 2.522887 2.145491 1.915448
  H 2.884605 0.822436 2.978977
  H 3.000584 -0.657729 -0.532917
  H 5.348634 -0.002111 1.318695
  H 4.829383 -2.528922 -4.697109
  H 5.033110 -0.871620 -5.199812
  H 7.830364 -1.499134 -3.140533
 17
 142.476423
  H 1.117177 0.026197 0.713176
  C 2.050795 0.250971 1.185409
  C 2.069770 1.216917 2.280262
  H 1.081180 1.348475 2.703505
  C 3.223627 -0.189728 0.569883
  C 4.485871 -0.028375 0.863583
  C 5.965631 -1.399258 -3.453181
  C 4.842415 -1.490558 -4.425366
  H 3.905911 -1.214082 -3.974180
  O 7.133663 -1.656235 -3.927324
  H 2.411728 2.187352 1.943541
  H 2.790988 0.905911 3.044875
  H 3.054499 -0.604280 -0.420667
  H 5.313778 -0.006092 1.530306
  H 4.783675 -2.515160 -4.807252
  H 5.041970 -0.850760 -5.286989
  H 7.851223 -1.568868 -3.269709
