 20
 0.000000
  C 0.991705 0.129669 0.372750
  C 2.463206 0.144736 0.413349
  C 3.211604 0.620587 1.597797
  C 2.395333 1.100668 2.790409
  H 3.063556 1.419356 3.584644
  C 3.129917 -0.311800 -0.720762
  C 4.514778 -0.378929 -0.889440
  C 5.101794 -0.842840 -2.045282
  H 4.540254 -1.189799 -2.904548
  O 6.384250 -0.920150 -2.246203
  H 0.530264 0.495699 1.281493
  H 0.637869 -0.884694 0.180628
  H 0.639467 0.729313 -0.468333
  H 3.872930 1.434513 1.280243
  H 3.871712 -0.187419 1.932483
  H 1.763060 0.306776 3.180926
  H 1.764427 1.944889 2.522491
  H 2.515702 -0.644022 -1.546983
  H 5.159449 -0.054505 -0.083999
  H 6.930556 -0.614266 -1.494133
 20
 13.381463
  C 0.963098 0.144196 0.408526
  C 2.424590 0.167900 0.471109
  C 3.171677 0.640073 1.646588
  C 2.355975 1.120495 2.839786
  H 3.026851 1.438543 3.632661
  C 3.167910 -0.329659 -0.764641
  C 4.532049 -0.383783 -0.901204
  C 5.184412 -0.888627 -2.159096
  H 4.619375 -1.233950 -3.013451
  O 6.460242 -0.958944 -2.343432
  H 0.489211 0.508001 1.311539
  H 0.617272 -0.872317 0.210260
  H 0.619115 0.741218 -0.438512
  H 3.834520 1.452773 1.326769
  H 3.833141 -0.168733 1.978826
  H 1.724646 0.327187 3.232780
  H 1.726243 1.966162 2.574003
  H 2.561445 -0.662388 -1.592076
  H 5.169519 -0.058800 -0.094537
  H 7.000189 -0.650570 -1.586630
 20
 40.482184
  C 0.922560 0.148332 0.418664
  C 2.364129 0.191658 0.530072
  C 3.153405 0.645881 1.660915
  C 2.359016 1.132586 2.869945
  H 3.043953 1.445950 3.651171
  C 3.184458 -0.350576 -0.816504
  C 4.531735 -0.370971 -0.869292
  C 5.247336 -0.913495 -2.220851
  H 4.631235 -1.244758 -3.039005
  O 6.524235 -0.970349 -2.371616
  H 0.426791 0.510110 1.317125
  H 0.590189 -0.874875 0.207033
  H 0.592188 0.741515 -0.442304
  H 3.819788 1.451108 1.318011
  H 3.818676 -0.173333 1.971193
  H 1.730392 0.342707 3.273481
  H 1.731976 1.982898 2.614231
  H 2.541768 -0.673637 -1.620069
  H 5.197770 -0.054286 -0.082700
  H 7.056234 -0.660491 -1.613072
 20
 73.534347
  C 0.899424 0.162515 0.453411
  C 2.321325 0.216365 0.591259
  C 3.119460 0.661320 1.699458
  C 2.328907 1.147795 2.908398
  H 3.015296 1.460683 3.688802
  C 3.218975 -0.370633 -0.866447
  C 4.533088 -0.374032 -0.877771
  C 5.320557 -0.952893 -2.318174
  H 4.696792 -1.282383 -3.129303
  O 6.591848 -0.997224 -2.438939
  H 0.390559 0.521135 1.343736
  H 0.577621 -0.860161 0.236506
  H 0.579905 0.751998 -0.410904
  H 3.784066 1.461849 1.352369
  H 3.782937 -0.157571 2.003210
  H 1.701152 0.356736 3.311751
  H 1.702857 1.999078 2.651963
  H 2.559332 -0.686170 -1.649985
  H 5.208925 -0.062360 -0.105089
  H 7.112737 -0.682015 -1.668597
 20
 106.341873
  C 0.835347 0.169788 0.471700
  C 2.257384 0.238729 0.646284
  C 3.089676 0.677006 1.737912
  C 2.327601 1.169995 2.963621
  H 3.034063 1.477508 3.730625
  C 3.234282 -0.395415 -0.929287
  C 4.534145 -0.378493 -0.889479
  C 5.405106 -0.987846 -2.405424
  H 4.786203 -1.318096 -3.219256
  O 6.677615 -1.015814 -2.483890
  H 0.306019 0.523090 1.350134
  H 0.527234 -0.851045 0.248598
  H 0.528832 0.753462 -0.395617
  H 3.755271 1.467906 1.377677
  H 3.754381 -0.143951 2.025227
  H 1.703082 0.383534 3.377911
  H 1.704424 2.025508 2.718412
  H 2.557447 -0.700907 -1.687808
  H 5.215427 -0.073443 -0.132395
  H 7.177000 -0.694029 -1.696562
 20
 135.961642
  C 0.787318 0.185308 0.509702
  C 2.202955 0.263143 0.707273
  C 3.055421 0.694767 1.782797
  C 2.300732 1.192878 3.020204
  H 3.013369 1.497845 3.781276
  C 3.258754 -0.422876 -0.996405
  C 4.539104 -0.390733 -0.918716
  C 5.493462 -1.025669 -2.499547
  H 4.892667 -1.359209 -3.320401
  O 6.767235 -1.041195 -2.549207
  H 0.243945 0.537486 1.385234
  H 0.484768 -0.842791 0.284081
  H 0.486527 0.772363 -0.364569
  H 3.723674 1.486695 1.413517
  H 3.722247 -0.133527 2.064549
  H 1.675927 0.407778 3.437038
  H 1.677929 2.049407 2.777451
  H 2.560620 -0.720414 -1.735488
  H 5.229906 -0.089309 -0.170908
  H 7.245664 -0.716080 -1.754331
 20
 160.768016
  C 0.733223 0.200004 0.545749
  C 2.138199 0.289404 0.772628
  C 3.019263 0.710952 1.823334
  C 2.287437 1.214978 3.075113
  H 3.016801 1.514391 3.822629
  C 3.275893 -0.453937 -1.072532
  C 4.532230 -0.404170 -0.951452
  C 5.580485 -1.055991 -2.575452
  H 5.011557 -1.397343 -3.414470
  O 6.855180 -1.059522 -2.596536
  H 0.172218 0.549883 1.415146
  H 0.439174 -0.830087 0.318828
  H 0.441086 0.787506 -0.330921
  H 3.684674 1.497402 1.444107
  H 3.683036 -0.120353 2.094490
  H 1.663010 0.431625 3.500973
  H 1.665194 2.076557 2.839993
  H 2.553239 -0.742264 -1.788686
  H 5.233249 -0.105782 -0.211448
  H 7.309825 -0.731316 -1.793572
 20
 174.762509
  C 0.677421 0.249064 0.672757
  C 2.092169 0.303167 0.804138
  C 2.903354 0.740313 1.891974
  C 2.224736 1.251765 3.167041
  H 2.977104 1.543942 3.895438
  C 3.324657 -0.517632 -1.227989
  C 4.545589 -0.445658 -1.066846
  C 5.723511 -1.054822 -2.665972
  H 5.256196 -1.464681 -3.567929
  O 6.978133 -1.119387 -2.676843
  H 0.091528 0.592699 1.530212
  H 0.407822 -0.781302 0.425819
  H 0.406031 0.821151 -0.218450
  H 3.571037 1.506356 1.477823
  H 3.571031 -0.099375 2.122954
  H 1.602869 0.476792 3.610015
  H 1.603058 2.118073 2.951264
  H 2.525920 -0.775232 -1.875673
  H 5.297600 -0.169485 -0.375625
  H 7.431186 -0.770885 -1.874524
 20
 180.118799
  C 0.626769 0.273325 0.735261
  C 2.043791 0.328379 0.867011
  C 2.851354 0.765044 1.952900
  C 2.168917 1.275160 3.225644
  H 2.917595 1.567565 3.953613
  C 3.350175 -0.538002 -1.281811
  C 4.564226 -0.458368 -1.102891
  C 5.825900 -1.094798 -2.779100
  H 5.370414 -1.510173 -3.679621
  O 7.081544 -1.165992 -2.776820
  H 0.040302 0.616009 1.591621
  H 0.359112 -0.756743 0.484621
  H 0.356372 0.842691 -0.158110
  H 3.521284 1.529708 1.537979
  H 3.522225 -0.073516 2.181872
  H 1.547802 0.500101 3.666412
  H 1.547056 2.139447 3.008564
  H 2.545560 -0.787922 -1.910749
  H 5.325420 -0.185356 -0.417941
  H 7.529882 -0.811508 -1.971630
 20
 183.827091
  C 0.575658 0.293823 0.791937
  C 1.989968 0.353343 0.930241
  C 2.803608 0.788813 2.010644
  C 2.121053 1.298248 3.282622
  H 2.871501 1.591090 4.008681
  C 3.376018 -0.561221 -1.348035
  C 4.568900 -0.464782 -1.128081
  C 5.914458 -1.119778 -2.865834
  H 5.474722 -1.545900 -3.770606
  O 7.172975 -1.208781 -2.857429
  H -0.011652 0.636896 1.651522
  H 0.307847 -0.737636 0.534495
  H 0.303042 0.859455 -0.106718
  H 3.477268 1.549352 1.595710
  H 3.480440 -0.045175 2.236079
  H 1.501012 0.521436 3.723653
  H 1.498210 2.162543 3.064728
  H 2.544595 -0.797410 -1.942650
  H 5.356225 -0.202399 -0.467650
  H 7.618502 -0.849882 -2.047901
 20
 186.266862
  C 0.523777 0.316057 0.849703
  C 1.931527 0.380270 0.996396
  C 2.748444 0.813893 2.071153
  C 2.067520 1.323873 3.347633
  H 2.820526 1.616625 4.072063
  C 3.393464 -0.577244 -1.394581
  C 4.578218 -0.471090 -1.148831
  C 6.012617 -1.156792 -2.961811
  H 5.579488 -1.586226 -3.871070
  O 7.275109 -1.250299 -2.947294
  H -0.066370 0.656131 1.703957
  H 0.260561 -0.713265 0.589947
  H 0.254171 0.878507 -0.048642
  H 3.423512 1.574549 1.653691
  H 3.428446 -0.020742 2.293673
  H 1.449366 0.547356 3.789329
  H 1.444713 2.187370 3.131497
  H 2.550391 -0.808244 -1.975182
  H 5.368710 -0.215119 -0.504470
  H 7.714024 -0.890695 -2.142679
 20
 187.552634
  C 0.466724 0.339181 0.908380
  C 1.870716 0.408442 1.066796
  C 2.691528 0.840490 2.136607
  C 2.013492 1.350408 3.412947
  H 2.769035 1.642799 4.135462
  C 3.411520 -0.593737 -1.435253
  C 4.585052 -0.478914 -1.165251
  C 6.104842 -1.191965 -3.056223
  H 5.678957 -1.622044 -3.967415
  O 7.370242 -1.290974 -3.042613
  H -0.130370 0.677960 1.759342
  H 0.207520 -0.692074 0.645128
  H 0.200674 0.900127 0.005950
  H 3.367303 1.599044 1.718246
  H 3.372819 0.007240 2.357001
  H 1.395685 0.573034 3.855640
  H 1.390436 2.214765 3.196832
  H 2.558840 -0.818227 -2.000363
  H 5.390123 -0.228309 -0.533271
  H 7.808724 -0.929560 -2.235852
 20
 188.020435
  C 0.407986 0.364136 0.969535
  C 1.806552 0.437682 1.141396
  C 2.630436 0.867692 2.205507
  C 1.953890 1.379733 3.482970
  H 2.710833 1.671385 4.203383
  C 3.428823 -0.610960 -1.468744
  C 4.592204 -0.488094 -1.175281
  C 6.195367 -1.224507 -3.147859
  H 5.773275 -1.654503 -4.062636
  O 7.464014 -1.328358 -3.138182
  H -0.196625 0.702090 1.815397
  H 0.152827 -0.667281 0.703699
  H 0.147413 0.922557 0.064125
  H 3.308456 1.624486 1.785601
  H 3.312830 0.034130 2.425104
  H 1.336116 0.603439 3.926431
  H 1.332110 2.244334 3.266446
  H 2.566397 -0.829134 -2.020588
  H 5.408327 -0.244886 -0.559851
  H 7.901419 -0.967268 -2.333363
 20
 187.942349
  C 0.343659 0.390927 1.034061
  C 1.737203 0.468354 1.219992
  C 2.565307 0.896289 2.278629
  C 1.891613 1.411254 3.557039
  H 2.651500 1.702070 4.275597
  C 3.441964 -0.627784 -1.496494
  C 4.595215 -0.497430 -1.180748
  C 6.282413 -1.254617 -3.235884
  H 5.863826 -1.683624 -4.153871
  O 7.553456 -1.362735 -3.231694
  H -0.268861 0.728529 1.874691
  H 0.091939 -0.641354 0.765789
  H 0.088838 0.947327 0.125058
  H 3.245483 1.650362 1.857205
  H 3.247797 0.062560 2.497627
  H 1.273019 0.636039 4.002120
  H 1.271251 2.277155 3.339929
  H 2.570580 -0.840027 -2.036379
  H 5.424350 -0.260959 -0.580158
  H 7.991816 -1.001953 -2.426732
 20
 185.502259
  C 0.316064 0.393658 0.955450
  C 1.687043 0.434210 1.207920
  C 2.574180 0.833500 2.202084
  C 1.982327 1.438478 3.487242
  H 2.787305 1.700626 4.165930
  C 3.413218 -0.782633 -1.340561
  C 4.499441 -0.584911 -0.881143
  C 6.269249 -1.070971 -3.099452
  H 5.725622 -1.405472 -4.004367
  O 7.531222 -1.234879 -3.321273
  H -0.323850 0.783381 1.757147
  H 0.030855 -0.636965 0.714800
  H 0.114691 0.930214 0.020900
  H 3.290230 1.526878 1.737652
  H 3.211350 -0.031375 2.435557
  H 1.330913 0.722684 3.979802
  H 1.413268 2.334725 3.258955
  H 2.511198 -0.915499 -1.860472
  H 5.402777 -0.477787 -0.365604
  H 8.095265 -0.957476 -2.564792
