 16
 0.000000
  H 1.427487 0.167053 0.466629
  C 2.501775 0.140088 0.399804
  H 3.090771 0.475672 1.236366
  C 3.056507 -0.323709 -0.756004
  C 4.447203 -0.415730 -0.985040
  C 5.092806 -0.870463 -2.118780
  C 4.608178 -1.381552 -3.392753
  C 3.133162 -1.507515 -3.706840
  H 3.010148 -1.909555 -4.708780
  H 6.176283 -0.852977 -2.075143
  H 2.382871 -0.637102 -1.537493
  H 5.096883 -0.093284 -0.180903
  H 5.092586 -2.362315 -3.529663
  H 5.092858 -0.767686 -4.169644
  H 2.637081 -0.539530 -3.672232
  H 2.636992 -2.183065 -3.012758
 16
 -0.293130
  H 1.445460 0.237283 0.498899
  C 2.508791 0.094724 0.405621
  H 3.116739 0.222919 1.286165
  C 3.035665 -0.252607 -0.801716
  C 4.427029 -0.390142 -1.007829
  C 5.089350 -0.820242 -2.140760
  C 4.611051 -1.375667 -3.397919
  C 3.137806 -1.543800 -3.696379
  H 3.017338 -2.011800 -4.670133
  H 6.171251 -0.770764 -2.088088
  H 2.360782 -0.403267 -1.628758
  H 5.053536 -0.102266 -0.172555
  H 5.120086 -2.348410 -3.512428
  H 5.089816 -0.790671 -4.201151
  H 2.627201 -0.583024 -3.725965
  H 2.650759 -2.176729 -2.957254
 16
 -0.072483
  H 1.465191 0.260316 0.526980
  C 2.504956 0.022526 0.383607
  H 3.105086 -0.078875 1.274033
  C 3.033449 -0.171218 -0.853838
  C 4.421647 -0.363002 -1.028491
  C 5.099003 -0.771800 -2.156757
  C 4.617535 -1.376071 -3.388829
  C 3.141202 -1.575585 -3.647107
  H 3.005546 -2.128439 -4.573047
  H 6.179283 -0.696335 -2.104101
  H 2.384346 -0.132403 -1.713338
  H 5.023222 -0.121236 -0.160698
  H 5.139719 -2.344857 -3.476545
  H 5.081144 -0.824691 -4.224049
  H 2.626937 -0.622834 -3.754909
  H 2.666309 -2.136446 -2.844159
 16
 1.906508
  H 1.499521 0.251844 0.566245
  C 2.500777 -0.077446 0.335236
  H 3.043895 -0.520709 1.159245
  C 3.039545 -0.061310 -0.905974
  C 4.424669 -0.296230 -1.080913
  C 5.118855 -0.693827 -2.197830
  C 4.631512 -1.398264 -3.375598
  C 3.142109 -1.595349 -3.575809
  H 2.969098 -2.195603 -4.462351
  H 6.192270 -0.549715 -2.173893
  H 2.427609 0.216746 -1.753654
  H 4.990173 -0.099189 -0.172080
  H 5.141178 -2.375929 -3.383615
  H 5.076815 -0.908670 -4.256728
  H 2.635585 -0.642760 -3.714099
  H 2.685357 -2.105367 -2.726465
 16
 8.152022
  H 1.604094 0.337332 0.647678
  C 2.523172 -0.097881 0.295111
  H 2.934489 -0.863854 0.935930
  C 3.022207 0.073249 -0.957910
  C 4.391658 -0.251398 -1.164123
  C 5.134332 -0.640229 -2.240585
  C 4.665333 -1.404606 -3.397080
  C 3.178704 -1.668910 -3.506287
  H 2.973135 -2.250417 -4.398988
  H 6.202576 -0.453212 -2.210403
  H 2.451211 0.586210 -1.716929
  H 4.835159 -0.156510 -0.173886
  H 5.216742 -2.358587 -3.390109
  H 5.038295 -0.893174 -4.296941
  H 2.626603 -0.742934 -3.571142
  H 2.807128 -2.228337 -2.649868
 16
 17.583096
  H 1.717954 0.350604 0.788101
  C 2.513497 -0.170656 0.280577
  H 2.800086 -1.111471 0.732986
  C 3.016223 0.177088 -0.938337
  C 4.347257 -0.202372 -1.221196
  C 5.115353 -0.560428 -2.281337
  C 4.683948 -1.407095 -3.400696
  C 3.206635 -1.729833 -3.467896
  H 3.015654 -2.411451 -4.285463
  H 6.169680 -0.325051 -2.242383
  H 2.477835 0.854556 -1.583591
  H 4.723642 -0.243100 -0.192688
  H 5.278573 -2.323644 -3.358729
  H 4.997020 -0.905367 -4.324697
  H 2.619635 -0.838982 -3.638288
  H 2.864052 -2.191468 -2.547007
 16
 40.203605
  H 1.950586 0.324286 1.023590
  C 2.650701 -0.164786 0.362601
  H 2.861194 -1.187962 0.629481
  C 2.921345 0.286254 -0.902851
  C 4.203327 -0.133175 -1.333546
  C 5.050903 -0.526816 -2.289839
  C 4.731335 -1.444623 -3.402281
  C 3.254624 -1.799592 -3.540027
  H 3.117969 -2.456794 -4.397407
  H 6.089275 -0.225816 -2.227003
  H 2.358703 1.064668 -1.393602
  H 4.406975 -0.219230 -0.194570
  H 5.346391 -2.344523 -3.284190
  H 5.086427 -0.957694 -4.318612
  H 2.651170 -0.907659 -3.708191
  H 2.887340 -2.322187 -2.656966
 16
 59.774790
  H 2.162389 0.393867 1.159578
  C 2.768742 -0.146779 0.452310
  H 2.972909 -1.175342 0.725634
  C 2.881766 0.293371 -0.900895
  C 4.072595 -0.124466 -1.421190
  C 4.977555 -0.510869 -2.296779
  C 4.740859 -1.453690 -3.423903
  C 3.282816 -1.826044 -3.641045
  H 3.201476 -2.527406 -4.466928
  H 6.015425 -0.226990 -2.156825
  H 2.259125 1.055427 -1.348124
  H 4.194392 -0.181696 -0.041804
  H 5.345962 -2.349459 -3.252949
  H 5.150956 -0.975419 -4.318664
  H 2.690462 -0.947987 -3.884252
  H 2.862123 -2.295735 -2.756025
 16
 37.970401
  H 2.350632 0.465609 1.211581
  C 2.889564 -0.132502 0.511891
  H 2.955032 -1.199896 0.758696
  C 2.862744 0.304991 -0.885969
  C 3.979870 -0.100768 -1.501454
  C 4.911482 -0.488683 -2.310275
  C 4.751530 -1.490903 -3.420122
  C 3.303885 -1.875490 -3.719329
  H 3.269934 -2.618195 -4.509306
  H 5.919521 -0.123605 -2.199845
  H 2.253959 1.111139 -1.269157
  H 4.053302 -0.186731 0.257756
  H 5.390566 -2.359222 -3.230885
  H 5.150456 -0.998103 -4.308813
  H 2.733788 -1.009044 -4.033068
  H 2.823077 -2.286040 -2.841357
 16
 17.463432
  H 2.362856 0.544179 1.214277
  C 2.952382 -0.062622 0.541194
  H 2.943097 -1.142320 0.786525
  C 2.872869 0.313003 -0.873639
  C 3.953863 -0.023658 -1.601059
  C 4.878357 -0.426614 -2.416311
  C 4.749222 -1.463386 -3.497820
  C 3.322287 -1.946320 -3.712886
  H 3.320927 -2.742009 -4.452784
  H 5.911440 -0.157486 -2.217832
  H 2.127729 1.002470 -1.252911
  H 4.077394 -0.018744 0.554057
  H 5.381018 -2.298746 -3.159633
  H 5.188153 -1.086345 -4.426457
  H 2.683835 -1.144787 -4.081373
  H 2.893463 -2.325344 -2.784442
 16
 7.424699
  H 2.331144 0.610702 1.213027
  C 2.995795 -0.012959 0.637284
  H 2.887484 -1.075387 0.875222
  C 2.958738 0.240732 -0.813214
  C 3.982585 -0.146742 -1.547111
  C 4.905262 -0.577877 -2.354774
  C 4.732181 -1.503065 -3.508856
  C 3.291682 -1.869712 -3.811332
  H 3.262755 -2.561340 -4.649523
  H 5.938620 -0.295151 -2.167602
  H 2.207507 0.895089 -1.240012
  H 4.066172 0.086982 0.838859
  H 5.337280 -2.390634 -3.295271
  H 5.185915 -1.034678 -4.388449
  H 2.708995 -0.993780 -4.083349
  H 2.822708 -2.345328 -2.953357
 16
 2.348940
  H 2.329330 0.686022 1.190912
  C 3.034535 0.021632 0.706157
  H 2.728467 -1.015993 0.900851
  C 3.054663 0.218876 -0.764111
  C 4.000394 -0.191718 -1.558221
  C 4.914701 -0.590450 -2.402283
  C 4.732752 -1.499373 -3.563416
  C 3.292929 -1.885902 -3.850647
  H 3.257215 -2.572208 -4.692319
  H 5.937950 -0.241581 -2.244895
  H 2.228989 0.774154 -1.198932
  H 4.032412 0.138751 1.123285
  H 5.345500 -2.387107 -3.352012
  H 5.189435 -1.045210 -4.450689
  H 2.693796 -1.015093 -4.106610
  H 2.841756 -2.367950 -2.985531
 16
 2.014470
  H 2.338699 0.686764 1.192625
  C 3.036456 0.011615 0.709162
  H 2.698142 -1.012704 0.892677
  C 3.067297 0.218268 -0.754105
  C 4.007754 -0.175769 -1.572437
  C 4.918678 -0.578679 -2.418351
  C 4.733716 -1.499741 -3.562115
  C 3.293575 -1.878264 -3.850061
  H 3.257096 -2.588698 -4.671449
  H 5.937554 -0.224059 -2.273762
  H 2.224795 0.755201 -1.185789
  H 4.027844 0.105851 1.144485
  H 5.336487 -2.388923 -3.333197
  H 5.199911 -1.066564 -4.453326
  H 2.707144 -1.008950 -4.137347
  H 2.829675 -2.328496 -2.975469
