 25
 0.000000
  H 1.457145 0.169846 0.474596
  C 2.535971 0.149243 0.422695
  C 3.301023 0.615517 1.582333
  C 2.462781 1.090088 2.763546
  C 3.346894 1.553679 3.916737
  C 3.087105 -0.322462 -0.751462
  C 4.468776 -0.423202 -1.002734
  C 5.100103 -0.878666 -2.138318
  C 4.596870 -1.391438 -3.417088
  C 3.108222 -1.503900 -3.698458
  H 2.957452 -1.903788 -4.695670
  H 6.182402 -0.870893 -2.118795
  H 3.965472 1.429863 1.267522
  H 3.965810 -0.189923 1.918541
  H 1.819814 0.280416 3.113756
  H 1.819515 1.916777 2.456160
  H 3.982140 0.745148 4.271179
  H 2.734964 1.888572 4.750440
  H 3.981815 2.382822 3.613021
  H 2.397312 -0.631022 -1.519470
  H 5.121874 -0.101419 -0.201020
  H 5.060636 -2.378486 -3.552514
  H 5.061156 -0.771871 -4.197017
  H 2.627209 -0.529104 -3.652531
  H 2.626756 -2.176647 -2.991801
 25
 14.241370
  H 1.429760 0.206219 0.564359
  C 2.506462 0.184738 0.510463
  C 3.276485 0.644479 1.654347
  C 2.440592 1.120178 2.838524
  C 3.328786 1.582473 3.988963
  C 3.102459 -0.333184 -0.778957
  C 4.459899 -0.426925 -1.012705
  C 5.144291 -0.926462 -2.257822
  C 4.624313 -1.431929 -3.517783
  C 3.128922 -1.532744 -3.769698
  H 2.956185 -1.932130 -4.765191
  H 6.224478 -0.916365 -2.232533
  H 3.943771 1.456345 1.335624
  H 3.943981 -0.162082 1.985842
  H 1.797417 0.311024 3.189390
  H 1.797271 1.947095 2.532097
  H 3.964059 0.772967 4.341182
  H 2.720085 1.918126 4.824661
  H 3.963856 2.410773 3.683143
  H 2.407493 -0.638951 -1.540209
  H 5.119468 -0.108423 -0.219126
  H 5.082104 -2.421589 -3.661476
  H 5.082519 -0.816390 -4.305711
  H 2.656053 -0.555126 -3.715492
  H 2.655744 -2.201669 -3.054884
 25
 43.588045
  H 1.374994 0.230467 0.617572
  C 2.449459 0.215268 0.580602
  C 3.242371 0.661212 1.694249
  C 2.427928 1.141126 2.890706
  C 3.338779 1.595728 4.026772
  C 3.091576 -0.348069 -0.823205
  C 4.429065 -0.418981 -0.999330
  C 5.184659 -0.960344 -2.345423
  C 4.651138 -1.455738 -3.575497
  C 3.157054 -1.547320 -3.800673
  H 2.966733 -1.948251 -4.796181
  H 6.258560 -0.930240 -2.271225
  H 3.915848 1.461672 1.366818
  H 3.914934 -0.144643 2.010519
  H 1.784554 0.330464 3.236410
  H 1.785635 1.966914 2.580777
  H 3.973697 0.780843 4.367012
  H 2.747097 1.935094 4.873014
  H 3.974739 2.419428 3.710472
  H 2.376773 -0.643613 -1.559665
  H 5.105232 -0.110005 -0.229939
  H 5.104375 -2.443918 -3.732138
  H 5.103638 -0.851526 -4.373390
  H 2.691648 -0.567506 -3.743872
  H 2.692678 -2.215030 -3.080604
 25
 76.862073
  H 1.323390 0.246424 0.659298
  C 2.393509 0.241252 0.647640
  C 3.203259 0.676770 1.734534
  C 2.409067 1.163636 2.946411
  C 3.341788 1.612005 4.066067
  C 3.092947 -0.367192 -0.868150
  C 4.411718 -0.417169 -0.992915
  C 5.238858 -0.997660 -2.438023
  C 4.683426 -1.484958 -3.649144
  C 3.179716 -1.558972 -3.831015
  H 2.953565 -1.954834 -4.814452
  H 6.302387 -0.951038 -2.322806
  H 3.881654 1.472601 1.392300
  H 3.880519 -0.135787 2.037460
  H 1.766377 0.360679 3.309419
  H 1.767572 1.995795 2.653524
  H 3.976717 0.792115 4.395373
  H 2.766992 1.955948 4.922452
  H 3.978019 2.431348 3.737782
  H 2.355532 -0.653923 -1.582617
  H 5.112418 -0.115480 -0.241865
  H 5.128341 -2.478905 -3.817831
  H 5.127755 -0.884808 -4.459407
  H 2.729713 -0.573125 -3.757142
  H 2.730671 -2.219336 -3.094703
 25
 110.457137
  H 1.254234 0.267313 0.710137
  C 2.320661 0.271984 0.723554
  C 3.155541 0.699722 1.792201
  C 2.393190 1.196759 3.029227
  C 3.358993 1.633962 4.121626
  C 3.078874 -0.381846 -0.906263
  C 4.375755 -0.412119 -0.982000
  C 5.287509 -1.028843 -2.516502
  C 4.723687 -1.520866 -3.738280
  C 3.208278 -1.591947 -3.911840
  H 2.971810 -1.986076 -4.890117
  H 6.342386 -0.963168 -2.354346
  H 3.838596 1.488955 1.432605
  H 3.837052 -0.120390 2.077906
  H 1.751578 0.400314 3.410758
  H 1.753449 2.037457 2.753976
  H 3.992910 0.807403 4.434108
  H 2.809919 1.983908 4.992348
  H 3.994743 2.446074 3.776566
  H 2.311468 -0.659194 -1.597621
  H 5.103868 -0.115485 -0.243662
  H 5.169522 -2.520789 -3.910644
  H 5.168773 -0.919252 -4.555761
  H 2.763630 -0.603391 -3.831890
  H 2.765014 -2.249787 -3.168880
 25
 140.898379
  H 1.175330 0.287708 0.756927
  C 2.241929 0.301798 0.794751
  C 3.103872 0.722434 1.847950
  C 2.380407 1.224643 3.098647
  C 3.383245 1.651628 4.168469
  C 3.060761 -0.399833 -0.954997
  C 4.339382 -0.409645 -0.979652
  C 5.332080 -1.060758 -2.597855
  C 4.761980 -1.551760 -3.814048
  C 3.251266 -1.614453 -3.964739
  H 2.994640 -2.011707 -4.948615
  H 6.381238 -0.977395 -2.393123
  H 3.785003 1.499541 1.474938
  H 3.782716 -0.099124 2.115177
  H 1.740775 0.434176 3.494498
  H 1.743636 2.071581 2.838447
  H 4.015819 0.818226 4.464351
  H 2.860690 2.006821 5.052713
  H 4.018608 2.456914 3.807634
  H 2.268578 -0.662125 -1.608943
  H 5.083013 -0.127043 -0.276634
  H 5.198530 -2.550974 -3.989160
  H 5.196936 -0.953122 -4.633825
  H 2.817256 -0.622887 -3.876352
  H 2.819395 -2.268066 -3.212502
 25
 167.013091
  H 1.125336 0.323309 0.845641
  C 2.192234 0.339044 0.887774
  C 3.065162 0.753091 1.924591
  C 2.359525 1.261111 3.189367
  C 3.378716 1.681103 4.242013
  C 3.056620 -0.410829 -0.981891
  C 4.326178 -0.414460 -0.991319
  C 5.380067 -1.105820 -2.710001
  C 4.801196 -1.593951 -3.919000
  C 3.284243 -1.650196 -4.053502
  H 3.015633 -2.043903 -5.028609
  H 6.424932 -1.017825 -2.494080
  H 3.746590 1.527434 1.540689
  H 3.744060 -0.074099 2.182244
  H 1.720854 0.474086 3.594825
  H 1.723905 2.112358 2.938311
  H 4.010136 0.843952 4.528461
  H 2.870763 2.039312 5.133495
  H 4.013145 2.482342 3.871755
  H 2.243198 -0.666924 -1.620182
  H 5.093335 -0.135449 -0.297428
  H 5.232458 -2.596615 -4.098364
  H 5.230717 -0.995574 -4.744209
  H 2.856205 -0.656252 -3.959633
  H 2.858495 -2.301710 -3.295782
 25
 187.070256
  H 1.052187 0.343864 0.899071
  C 2.133731 0.366553 0.956413
  C 3.022818 0.777771 1.985085
  C 2.341464 1.293266 3.271443
  C 3.385340 1.703540 4.298606
  C 3.062006 -0.435141 -1.045163
  C 4.306743 -0.418919 -1.006753
  C 5.422207 -1.144399 -2.804913
  C 4.837328 -1.626063 -3.995996
  C 3.322058 -1.668607 -4.100620
  H 3.028052 -2.062003 -5.073397
  H 6.471369 -1.048795 -2.568741
  H 3.702726 1.550091 1.590552
  H 3.701688 -0.054218 2.232745
  H 1.706046 0.510321 3.688104
  H 1.707688 2.148436 3.032350
  H 4.015759 0.861589 4.571213
  H 2.897995 2.064908 5.200002
  H 4.017204 2.499877 3.915209
  H 2.219801 -0.677414 -1.646859
  H 5.100317 -0.155118 -0.351105
  H 5.251674 -2.632561 -4.180332
  H 5.251464 -1.030370 -4.828050
  H 2.908248 -0.670351 -3.996416
  H 2.908582 -2.313930 -3.331720
 25
 200.243069
  H 1.008060 0.391874 1.010688
  C 2.080653 0.408042 1.045174
  C 2.941670 0.817893 2.075819
  C 2.313028 1.337492 3.391169
  C 3.394231 1.735206 4.390553
  C 3.069074 -0.444686 -1.097376
  C 4.288011 -0.417189 -1.033060
  C 5.450094 -1.185667 -2.908877
  C 4.884837 -1.673542 -4.100427
  C 3.366144 -1.717958 -4.215110
  H 3.079072 -2.113999 -5.180328
  H 6.493818 -1.095503 -2.685193
  H 3.622503 1.583114 1.666156
  H 3.625908 -0.017848 2.299903
  H 1.684374 0.560376 3.824255
  H 1.681478 2.198718 3.175564
  H 4.025585 0.885066 4.641350
  H 2.939529 2.098297 5.309742
  H 4.022483 2.528691 3.990500
  H 2.206542 -0.670229 -1.652048
  H 5.109468 -0.171868 -0.426515
  H 5.305576 -2.680222 -4.280406
  H 5.308349 -1.084114 -4.934562
  H 2.951237 -0.719758 -4.116311
  H 2.948475 -2.357119 -3.443537
 25
 204.778934
  H 0.960111 0.442301 1.133857
  C 2.043626 0.450872 1.146665
  C 2.890000 0.860204 2.178275
  C 2.287644 1.381423 3.504494
  C 3.384977 1.771586 4.485944
  C 3.075066 -0.451737 -1.123689
  C 4.282624 -0.421597 -1.053459
  C 5.485479 -1.235838 -3.032122
  C 4.925993 -1.723471 -4.219180
  C 3.406065 -1.766340 -4.332118
  H 3.114568 -2.165300 -5.300690
  H 6.545889 -1.153152 -2.826307
  H 3.570027 1.617649 1.756208
  H 3.574975 0.022214 2.385153
  H 1.661114 0.606089 3.947047
  H 1.656691 2.247228 3.299858
  H 4.015290 0.918462 4.725602
  H 2.947467 2.135600 5.412388
  H 4.010422 2.561874 4.077558
  H 2.190504 -0.669648 -1.657866
  H 5.130773 -0.185662 -0.471485
  H 5.349554 -2.729172 -4.400376
  H 5.353367 -1.138102 -5.054816
  H 2.992514 -0.767552 -4.232335
  H 2.988625 -2.402341 -3.557707
 25
 207.097653
  H 0.928113 0.488720 1.246036
  C 2.008235 0.491739 1.241653
  C 2.847501 0.901915 2.278445
  C 2.261247 1.421564 3.609782
  C 3.369865 1.806949 4.580925
  C 3.084387 -0.459120 -1.155275
  C 4.286583 -0.423298 -1.071784
  C 5.527900 -1.285644 -3.154600
  C 4.963417 -1.774127 -4.337901
  C 3.442264 -1.810720 -4.437137
  H 3.139117 -2.209589 -5.400094
  H 6.587979 -1.211145 -2.968634
  H 3.528609 1.654848 1.847734
  H 3.535591 0.062051 2.472131
  H 1.636896 0.646910 4.056468
  H 1.630389 2.289087 3.412457
  H 4.000528 0.951495 4.813023
  H 2.942629 2.170415 5.512653
  H 3.993525 2.596830 4.167950
  H 2.189664 -0.667700 -1.664534
  H 5.151334 -0.199239 -0.520643
  H 5.385165 -2.780172 -4.522361
  H 5.389866 -1.194333 -5.178082
  H 3.034304 -0.810494 -4.333738
  H 3.029470 -2.441466 -3.656543
 25
 208.658728
  H 0.893696 0.533071 1.353149
  C 1.977007 0.532838 1.337358
  C 2.813520 0.941593 2.374060
  C 2.236765 1.458789 3.708427
  C 3.352236 1.840119 4.671637
  C 3.096428 -0.464931 -1.185284
  C 4.292912 -0.422776 -1.087314
  C 5.572201 -1.334948 -3.275713
  C 4.997203 -1.823604 -4.452514
  C 3.474711 -1.852556 -4.534482
  H 3.156357 -2.252502 -5.493667
  H 6.638408 -1.266146 -3.103547
  H 3.495710 1.691290 1.937554
  H 3.504466 0.100853 2.557483
  H 1.613941 0.683901 4.157030
  H 1.605583 2.327321 3.516277
  H 3.982943 0.983577 4.897887
  H 2.931593 2.202198 5.606609
  H 3.974050 2.629777 4.256369
  H 2.184528 -0.666127 -1.674259
  H 5.179736 -0.208499 -0.562113
  H 5.414164 -2.830920 -4.640600
  H 5.419630 -1.249586 -5.298647
  H 3.073682 -0.849605 -4.426953
  H 3.068094 -2.478024 -3.745977
 25
 209.539669
  H 0.862370 0.575437 1.456553
  C 1.944706 0.572813 1.431887
  C 2.781389 0.980491 2.468971
  C 2.212458 1.496052 3.807411
  C 3.334371 1.874205 4.764560
  C 3.107655 -0.471345 -1.216321
  C 4.300410 -0.422311 -1.102398
  C 5.617667 -1.384478 -3.396276
  C 5.030434 -1.873253 -4.567081
  C 3.506238 -1.894178 -4.631296
  H 3.173163 -2.294059 -5.584546
  H 6.684853 -1.320993 -3.236607
  H 3.464823 1.727249 2.027578
  H 3.475203 0.139230 2.643419
  H 1.590921 0.720811 4.257609
  H 1.580917 2.365510 3.619680
  H 3.965324 1.016513 4.985956
  H 2.919124 2.235125 5.702567
  H 3.954767 2.664020 4.347376
  H 2.186211 -0.663793 -1.682111
  H 5.202080 -0.219018 -0.605768
  H 5.441766 -2.882632 -4.758856
  H 5.448097 -1.304382 -5.419639
  H 3.112506 -0.889047 -4.519710
  H 3.106103 -2.514237 -3.835562
 25
 209.874635
  H 0.829622 0.616708 1.558725
  C 1.912965 0.612548 1.528204
  C 2.751351 1.018566 2.563383
  C 2.189676 1.532742 3.904403
  C 3.316846 1.907843 4.855344
  C 3.118924 -0.478495 -1.245068
  C 4.306812 -0.422894 -1.115480
  C 5.662117 -1.434102 -3.515506
  C 5.062038 -1.921642 -4.679213
  C 3.537330 -1.934620 -4.726022
  H 3.189761 -2.334277 -5.674867
  H 6.731886 -1.374744 -3.365187
  H 3.436131 1.762610 2.117844
  H 3.447630 0.177021 2.730401
  H 1.569406 0.757587 4.355953
  H 1.558240 2.402739 3.720348
  H 3.947666 1.049221 5.072554
  H 2.906461 2.267907 5.795625
  H 3.935943 2.697448 4.436296
  H 2.182835 -0.662836 -1.690057
  H 5.226610 -0.229851 -0.645026
  H 5.466835 -2.932761 -4.874999
  H 5.473917 -1.357321 -5.537420
  H 3.150777 -0.926987 -4.610003
  H 3.143626 -2.550324 -3.923461
