 20
 0.000000
  C 1.008420 -0.070725 0.049216
  C 2.504698 -0.083011 0.025097
  C 3.218186 -0.596514 -0.983000
  C 4.655418 -0.607171 -1.003919
  C 5.376735 -1.122059 -2.014730
  C 6.815113 -1.131000 -2.032280
  C 7.534836 -1.642384 -3.036218
  C 9.024818 -1.660919 -3.072597
  H 0.648173 0.395782 0.965043
  H 0.611965 -1.085133 0.011127
  H 0.611965 0.494895 -0.793721
  H 3.006973 0.351917 0.878935
  H 2.705298 -1.029458 -1.832929
  H 5.159353 -0.172177 -0.149957
  H 4.872888 -1.557038 -2.868667
  H 7.320546 -0.696266 -1.178821
  H 7.037302 -2.078900 -3.893153
  H 9.457344 -1.207535 -2.182534
  H 9.384685 -1.114846 -3.945950
  H 9.384686 -2.688438 -3.144393
 20
 0.845964
  C 1.007425 -0.009124 -0.011175
  C 2.497395 -0.113855 0.068922
  C 3.255896 -0.649013 -0.888597
  C 4.688782 -0.724725 -0.819778
  C 5.424726 -1.313528 -1.782082
  C 6.857051 -1.245127 -1.907927
  C 7.530512 -1.678006 -2.979116
  C 9.007817 -1.587889 -3.144112
  H 0.599437 0.453589 0.882991
  H 0.558677 -0.995915 -0.122886
  H 0.710285 0.588717 -0.872423
  H 2.965100 0.282259 0.959500
  H 2.783562 -1.047779 -1.777010
  H 5.173662 -0.210026 0.001125
  H 4.908511 -1.839274 -2.579310
  H 7.398377 -0.801458 -1.080845
  H 6.993263 -2.124363 -3.806252
  H 9.473111 -1.130190 -2.275165
  H 9.255413 -0.997019 -4.026247
  H 9.432287 -2.581916 -3.286601
 20
 2.778765
  C 1.014564 0.046056 -0.118617
  C 2.491540 -0.107711 0.053635
  C 3.294923 -0.651920 -0.864080
  C 4.721367 -0.780496 -0.719354
  C 5.469117 -1.447209 -1.615332
  C 6.881525 -1.310373 -1.836518
  C 7.494211 -1.699620 -2.956440
  C 8.944311 -1.509631 -3.237203
  H 0.548739 0.406428 0.794690
  H 0.557988 -0.905021 -0.391329
  H 0.794549 0.754376 -0.917995
  H 2.914715 0.259225 0.978898
  H 2.871999 -1.025272 -1.788304
  H 5.190388 -0.223398 0.081320
  H 4.942951 -1.992338 -2.393880
  H 7.456686 -0.837251 -1.048679
  H 6.922616 -2.178443 -3.741578
  H 9.447659 -1.036549 -2.397569
  H 9.081291 -0.889745 -4.124159
  H 9.418375 -2.471245 -3.436159
 20
 7.898198
  C 1.078042 0.132155 -0.283100
  C 2.516083 -0.117583 0.043016
  C 3.354334 -0.781047 -0.758498
  C 4.756440 -0.967963 -0.475350
  C 5.540711 -1.583700 -1.377781
  C 6.923913 -1.394155 -1.709547
  C 7.428180 -1.687554 -2.908827
  C 8.823364 -1.388326 -3.334558
  H 0.550038 0.552101 0.568610
  H 0.583570 -0.794518 -0.573678
  H 0.989749 0.826180 -1.119796
  H 2.885255 0.320653 0.960526
  H 2.971745 -1.216893 -1.671636
  H 5.194852 -0.295844 0.253638
  H 5.042115 -2.293398 -2.036732
  H 7.561481 -0.931018 -0.963664
  H 6.798444 -2.153665 -3.656250
  H 9.389645 -0.926071 -2.529595
  H 8.819886 -0.719123 -4.195721
  H 9.330427 -2.305218 -3.637709
 20
 21.657479
  C 1.214232 0.227015 -0.440928
  C 2.622215 -0.087338 -0.033934
  C 3.414785 -0.909918 -0.723534
  C 4.740277 -1.263087 -0.263225
  C 5.548317 -1.735703 -1.233719
  C 6.880745 -1.413431 -1.638730
  C 7.342713 -1.671805 -2.862146
  C 8.665208 -1.225140 -3.378352
  H 0.729941 0.865467 0.288393
  H 0.634269 -0.690184 -0.537404
  H 1.190831 0.733048 -1.408961
  H 2.997964 0.453026 0.823033
  H 2.979778 -1.417577 -1.566231
  H 5.174261 -0.540950 0.433508
  H 5.147312 -2.554806 -1.821631
  H 7.515938 -0.875827 -0.937950
  H 6.729866 -2.231862 -3.557675
  H 9.224265 -0.686821 -2.618635
  H 8.532867 -0.582053 -4.248420
  H 9.255047 -2.086113 -3.700346
 20
 46.985889
  C 1.357236 0.287992 -0.546320
  C 2.752091 -0.070147 -0.124293
  C 3.500122 -0.976770 -0.771344
  C 4.701300 -1.478153 -0.093260
  C 5.511168 -1.816965 -1.148294
  C 6.783970 -1.360477 -1.611465
  C 7.262290 -1.670984 -2.822678
  C 8.520179 -1.129184 -3.397415
  H 0.884855 0.917689 0.201618
  H 0.758430 -0.612569 -0.676756
  H 1.346904 0.829009 -1.493586
  H 3.137674 0.444694 0.742019
  H 3.074428 -1.387687 -1.677854
  H 5.144314 -0.727459 0.568401
  H 5.226419 -2.745335 -1.646333
  H 7.346300 -0.692932 -0.968357
  H 6.710575 -2.352015 -3.454383
  H 9.024392 -0.474888 -2.693365
  H 8.314481 -0.571877 -4.311544
  H 9.187998 -1.947343 -3.659460
 20
 76.833102
  C 1.658830 0.269419 -0.811366
  C 3.041640 -0.075237 -0.306238
  C 3.724550 -1.140937 -0.779392
  C 4.760466 -1.652381 0.280993
  C 5.405712 -1.889183 -0.926479
  C 6.603716 -1.319604 -1.503141
  C 7.021087 -1.603660 -2.739598
  C 8.199830 -0.987972 -3.400786
  H 1.225135 1.061668 -0.209714
  H 1.000153 -0.596927 -0.767430
  H 1.687774 0.607783 -1.851172
  H 3.458284 0.576591 0.442221
  H 3.237871 -1.706927 -1.542105
  H 5.185493 -0.838695 0.851571
  H 5.158432 -2.845079 -1.372791
  H 7.151351 -0.609089 -0.894783
  H 6.483057 -2.335654 -3.330937
  H 8.699964 -0.286222 -2.738813
  H 7.890075 -0.461881 -4.303912
  H 8.907537 -1.759514 -3.699644
 20
 84.596067
  C 1.882182 0.245088 -0.997090
  C 3.234539 -0.127771 -0.475634
  C 3.867658 -1.233456 -0.900142
  C 4.806445 -1.636730 0.558689
  C 5.308059 -1.882242 -0.760197
  C 6.421778 -1.212967 -1.480153
  C 6.828467 -1.569048 -2.689029
  C 7.946668 -0.925047 -3.436088
  H 1.476783 1.089097 -0.447126
  H 1.186672 -0.588863 -0.916747
  H 1.948713 0.518613 -2.050756
  H 3.651376 0.533274 0.266627
  H 3.383432 -1.798394 -1.687767
  H 5.245007 -0.702404 0.944115
  H 5.212851 -2.928146 -1.064144
  H 6.904189 -0.390943 -0.962647
  H 6.342011 -2.392254 -3.198976
  H 8.399142 -0.127174 -2.852170
  H 7.580789 -0.509770 -4.375536
  H 8.712011 -1.662126 -3.679232
 20
 88.314168
  C 1.934391 0.184764 -1.137761
  C 3.258501 -0.199145 -0.555860
  C 3.917444 -1.276166 -0.965022
  C 5.056597 -1.418320 0.799406
  C 5.317066 -1.803303 -0.575655
  C 6.366460 -1.152093 -1.426455
  C 6.734343 -1.602072 -2.614271
  C 7.776660 -0.974313 -3.475172
  H 1.498527 1.012116 -0.590724
  H 1.241117 -0.651973 -1.112400
  H 2.054442 0.484788 -2.178388
  H 3.633911 0.449434 0.219164
  H 3.501560 -1.864284 -1.774535
  H 5.509452 -0.423958 0.983282
  H 5.289898 -2.885957 -0.727498
  H 6.826258 -0.260656 -1.012666
  H 6.274134 -2.495484 -3.020110
  H 8.207622 -0.101178 -2.993268
  H 7.343089 -0.671525 -4.428248
  H 8.571642 -1.687830 -3.688280
 20
 88.788721
  C 1.895542 0.183272 -1.137932
  C 3.211610 -0.244461 -0.565382
  C 3.913943 -1.256007 -1.055496
  C 5.156030 -1.332684 0.842448
  C 5.284080 -1.715213 -0.562343
  C 6.350287 -1.106270 -1.431725
  C 6.732646 -1.610239 -2.593629
  C 7.781906 -1.017730 -3.473372
  H 1.424145 0.931369 -0.507459
  H 1.221369 -0.665498 -1.236861
  H 2.037817 0.611341 -2.130257
  H 3.568978 0.313219 0.288182
  H 3.551652 -1.800193 -1.918667
  H 5.740300 -0.411217 1.039239
  H 5.286361 -2.807686 -0.656640
  H 6.803636 -0.196788 -1.056149
  H 6.278933 -2.522499 -2.962500
  H 8.205152 -0.120774 -3.027640
  H 7.357010 -0.760880 -4.443964
  H 8.582266 -1.737486 -3.644962
 20
 88.702678
  C 1.861543 0.195130 -1.172367
  C 3.156297 -0.282472 -0.593724
  C 3.897198 -1.235979 -1.136603
  C 5.197807 -1.372127 0.864991
  C 5.236745 -1.666321 -0.568181
  C 6.341445 -1.095476 -1.422538
  C 6.691033 -1.578722 -2.603446
  C 7.774614 -1.020250 -3.463712
  H 1.353657 0.863496 -0.483249
  H 1.204013 -0.643277 -1.395003
  H 2.039430 0.733686 -2.103303
  H 3.486216 0.178859 0.328512
  H 3.602535 -1.714291 -2.061050
  H 6.002087 -0.664825 1.147550
  H 5.243338 -2.765567 -0.636329
  H 6.854645 -0.232827 -1.015180
  H 6.180584 -2.445509 -3.006558
  H 8.253729 -0.169109 -2.985847
  H 7.365721 -0.700501 -4.422374
  H 8.528028 -1.781780 -3.665230
 20
 88.292802
  C 1.786356 0.079386 -1.276268
  C 3.097128 -0.253454 -0.635535
  C 3.921084 -1.185336 -1.084854
  C 5.321755 -1.101094 0.933852
  C 5.275756 -1.460575 -0.473402
  C 6.374625 -1.006667 -1.413800
  C 6.652558 -1.585816 -2.570082
  C 7.724564 -1.139152 -3.506929
  H 1.207172 0.748719 -0.646891
  H 1.203507 -0.821878 -1.458213
  H 1.948674 0.567635 -2.237378
  H 3.370488 0.301375 0.252259
  H 3.686575 -1.753400 -1.975583
  H 6.273847 -0.607016 1.202798
  H 5.357275 -2.562558 -0.409578
  H 6.946188 -0.147643 -1.084177
  H 6.086192 -2.450015 -2.896876
  H 8.261655 -0.282546 -3.106931
  H 7.291085 -0.864421 -4.468659
  H 8.432801 -1.948486 -3.684796
