 26
 0.000000
  C 0.925173 0.049828 0.294747
  C 2.411938 0.058170 0.058155
  C 3.233379 -0.013703 1.325860
  H 2.585240 -0.067250 2.197605
  C 3.002999 0.127904 -1.148223
  C 2.359455 0.206080 -2.518249
  C 0.845108 0.214730 -2.708261
  C 0.511729 0.299992 -4.195520
  C 4.460770 0.132712 -1.228708
  C 5.206762 0.196398 -2.330843
  O 6.565678 0.197252 -2.335969
  H 0.710740 -0.014049 1.359020
  H 0.449220 -0.800518 -0.187139
  H 0.461551 0.959135 -0.079727
  H 3.867099 0.866110 1.437739
  H 3.873350 -0.896051 1.334472
  H 2.751223 -0.640742 -3.092037
  H 2.749013 1.114264 -2.990865
  H 0.400195 1.071962 -2.204839
  H 0.403260 -0.696284 -2.306895
  H 0.922769 1.209109 -4.629788
  H -0.565692 0.306814 -4.344715
  H 0.925698 -0.551777 -4.731423
  H 5.000009 0.079260 -0.293413
  H 4.832260 0.254402 -3.339177
  H 6.893924 0.145110 -1.428912
 26
 6.092209
  C 0.934971 0.021609 0.322252
  C 2.382894 0.056692 0.069052
  C 3.255693 -0.028285 1.354354
  H 2.625567 -0.054511 2.236500
  C 2.976766 0.126907 -1.137839
  C 2.335841 0.206707 -2.515227
  C 0.822807 0.205024 -2.728832
  C 0.514156 0.292950 -4.220906
  C 4.437068 0.143517 -1.217444
  C 5.186420 0.212453 -2.323865
  O 6.544451 0.215549 -2.327331
  H 0.679024 0.001174 1.378058
  H 0.399153 -0.777390 -0.177753
  H 0.733158 0.986100 -0.118150
  H 3.912461 0.830593 1.442497
  H 3.863067 -0.927386 1.354169
  H 2.737603 -0.635108 -3.088435
  H 2.723987 1.118561 -2.981276
  H 0.358742 1.056529 -2.232220
  H 0.382454 -0.710966 -2.339565
  H 0.924627 1.207292 -4.644768
  H -0.560499 0.290753 -4.388192
  H 0.945161 -0.553007 -4.752601
  H 4.976333 0.090049 -0.282685
  H 4.813268 0.270103 -3.332670
  H 6.870298 0.162404 -1.419754
 26
 18.611343
  C 0.924946 0.013275 0.262793
  C 2.376688 0.056975 0.064730
  C 3.208104 -0.038770 1.364256
  H 2.540674 -0.038751 2.219521
  C 2.996390 0.127059 -1.137118
  C 2.347931 0.208067 -2.499044
  C 0.835666 0.187999 -2.680800
  C 0.495929 0.282424 -4.165532
  C 4.461231 0.152388 -1.227805
  C 5.196291 0.226648 -2.336541
  O 6.563647 0.233321 -2.353272
  H 0.598597 0.047293 1.288388
  H 0.379589 -0.732652 -0.284498
  H 0.995621 0.974995 -0.221216
  H 3.886459 0.800797 1.466434
  H 3.780670 -0.960326 1.377406
  H 2.749037 -0.624960 -3.082091
  H 2.719947 1.125327 -2.964439
  H 0.365302 1.028235 -2.166265
  H 0.415786 -0.739590 -2.288643
  H 0.883826 1.206385 -4.589773
  H -0.581750 0.265207 -4.311244
  H 0.928601 -0.552398 -4.712715
  H 5.006814 0.096917 -0.303141
  H 4.813698 0.285789 -3.343091
  H 6.898843 0.177519 -1.444026
 26
 32.464007
  C 0.912931 0.014407 0.306955
  C 2.360467 0.052785 0.063199
  C 3.230062 -0.041349 1.375586
  H 2.577738 -0.015976 2.242161
  C 2.980784 0.120169 -1.139218
  C 2.339217 0.205956 -2.511992
  C 0.823863 0.166820 -2.711833
  C 0.497815 0.281005 -4.198691
  C 4.440206 0.155023 -1.220374
  C 5.179724 0.239185 -2.327011
  O 6.542794 0.242567 -2.338549
  H 0.607872 0.065852 1.343203
  H 0.308949 -0.683829 -0.266929
  H 1.166390 0.963301 -0.163084
  H 3.931247 0.786044 1.454635
  H 3.779733 -0.978924 1.389721
  H 2.758063 -0.616820 -3.100882
  H 2.704025 1.135745 -2.965041
  H 0.334575 0.990124 -2.187300
  H 0.415337 -0.775156 -2.341834
  H 0.875407 1.217910 -4.603527
  H -0.578104 0.248981 -4.356284
  H 0.950075 -0.537688 -4.754691
  H 4.985676 0.091909 -0.288993
  H 4.801308 0.305365 -3.332164
  H 6.872703 0.176259 -1.430847
 26
 45.546008
  C 0.908877 -0.004646 0.297230
  C 2.353696 0.058601 0.040181
  C 3.198513 -0.025913 1.345566
  H 2.548849 0.004138 2.218364
  C 2.993624 0.121327 -1.154377
  C 2.344240 0.206347 -2.534114
  C 0.830782 0.162958 -2.701177
  C 0.467246 0.279714 -4.180035
  C 4.456510 0.148924 -1.217098
  C 5.211039 0.235771 -2.316385
  O 6.568174 0.249658 -2.304604
  H 0.614049 0.048047 1.335039
  H 0.290000 -0.653138 -0.292089
  H 1.304344 0.926508 -0.139750
  H 3.903777 0.788215 1.437540
  H 3.737587 -0.960041 1.363804
  H 2.754665 -0.612545 -3.132213
  H 2.699092 1.134663 -2.993995
  H 0.352439 0.984297 -2.161209
  H 0.437321 -0.781927 -2.324573
  H 0.831384 1.219554 -4.591977
  H -0.612832 0.243665 -4.311761
  H 0.909186 -0.535520 -4.748593
  H 4.992683 0.081957 -0.290428
  H 4.849540 0.310151 -3.325760
  H 6.883199 0.181032 -1.379155
 26
 54.135435
  C 0.889041 -0.029356 0.326574
  C 2.339933 0.061572 0.041991
  C 3.194794 -0.008345 1.335476
  H 2.550301 0.029854 2.215664
  C 2.982777 0.119112 -1.161862
  C 2.345895 0.202237 -2.531175
  C 0.834357 0.155358 -2.707680
  C 0.481253 0.284382 -4.185288
  C 4.442485 0.145694 -1.218722
  C 5.198418 0.236936 -2.313150
  O 6.574265 0.247940 -2.302351
  H 0.610722 0.016284 1.350105
  H 0.242803 -0.626267 -0.284857
  H 1.395705 0.901202 -0.080389
  H 3.907538 0.814322 1.404621
  H 3.736761 -0.948878 1.356629
  H 2.763286 -0.612295 -3.128417
  H 2.701113 1.134321 -2.985046
  H 0.349493 0.972305 -2.161486
  H 0.441970 -0.797060 -2.342265
  H 0.844982 1.229099 -4.585667
  H -0.597142 0.245770 -4.324420
  H 0.930213 -0.524169 -4.758274
  H 4.977116 0.071815 -0.282383
  H 4.832835 0.318831 -3.327462
  H 6.882038 0.173659 -1.407392
 26
 60.609277
  C 0.888718 -0.058310 0.354510
  C 2.339911 0.062254 0.043796
  C 3.198977 0.011994 1.328123
  H 2.561384 0.056422 2.209455
  C 2.980339 0.117999 -1.166838
  C 2.338986 0.201088 -2.542923
  C 0.828376 0.150860 -2.722338
  C 0.476138 0.290245 -4.200549
  C 4.437731 0.147902 -1.215682
  C 5.204479 0.242778 -2.305233
  O 6.577386 0.235078 -2.283621
  H 0.627913 -0.025302 1.378320
  H 0.214760 -0.608254 -0.279135
  H 1.477132 0.878315 -0.023736
  H 3.909099 0.843030 1.376968
  H 3.747131 -0.926610 1.357587
  H 2.759429 -0.607941 -3.142486
  H 2.689433 1.133406 -2.993901
  H 0.341806 0.963458 -2.169988
  H 0.438828 -0.807226 -2.365424
  H 0.837863 1.239260 -4.593414
  H -0.603254 0.249498 -4.341478
  H 0.928200 -0.512635 -4.778839
  H 4.961875 0.066866 -0.281808
  H 4.846000 0.328101 -3.321093
  H 6.880953 0.148415 -1.374731
 26
 65.149642
  C 0.881658 -0.088903 0.312560
  C 2.342968 0.073571 0.032891
  C 3.183608 0.032215 1.340316
  H 2.529009 0.082282 2.205022
  C 3.004947 0.118990 -1.180180
  C 2.357340 0.198511 -2.552810
  C 0.840462 0.148580 -2.703050
  C 0.455645 0.292378 -4.172763
  C 4.454347 0.143461 -1.223101
  C 5.228367 0.240740 -2.316599
  O 6.581972 0.231589 -2.288712
  H 0.580326 -0.078922 1.356182
  H 0.222283 -0.578322 -0.368766
  H 1.545238 0.882614 -0.012500
  H 3.883163 0.854642 1.395665
  H 3.725976 -0.899653 1.383095
  H 2.770987 -0.614411 -3.156661
  H 2.702384 1.131347 -3.012092
  H 0.368346 0.955098 -2.139862
  H 0.459906 -0.806189 -2.340892
  H 0.808214 1.241813 -4.570528
  H -0.624371 0.251936 -4.290277
  H 0.894996 -0.508631 -4.762886
  H 4.980295 0.054296 -0.279085
  H 4.878761 0.332854 -3.324267
  H 6.875221 0.139895 -1.384910
 26
 68.888720
  C 0.883394 -0.131822 0.341835
  C 2.335431 0.078415 0.044288
  C 3.198075 0.056145 1.346435
  H 2.552115 0.111830 2.216042
  C 2.992793 0.114197 -1.181353
  C 2.355900 0.192609 -2.548134
  C 0.831363 0.149468 -2.719290
  C 0.466195 0.303000 -4.194456
  C 4.428242 0.136922 -1.225138
  C 5.196069 0.236541 -2.315659
  O 6.583102 0.226881 -2.291527
  H 0.589841 -0.137880 1.377192
  H 0.215424 -0.565376 -0.353287
  H 1.586871 0.879937 0.036618
  H 3.890479 0.886961 1.378882
  H 3.751291 -0.874937 1.393142
  H 2.778267 -0.629497 -3.149875
  H 2.713614 1.133529 -3.007530
  H 0.356012 0.953179 -2.160256
  H 0.441455 -0.803077 -2.369849
  H 0.827987 1.253093 -4.582292
  H -0.611679 0.267985 -4.326548
  H 0.910395 -0.497728 -4.783706
  H 4.962760 0.043199 -0.269863
  H 4.837632 0.334784 -3.331183
  H 6.889997 0.128708 -1.367574
 26
 71.663073
  C 0.890243 -0.178753 0.344174
  C 2.336801 0.086092 0.049322
  C 3.197031 0.080478 1.350457
  H 2.539008 0.143254 2.228502
  C 2.999163 0.111505 -1.182467
  C 2.357587 0.189123 -2.549313
  C 0.837247 0.150610 -2.714794
  C 0.466805 0.312418 -4.190590
  C 4.429492 0.137373 -1.224341
  C 5.207122 0.236486 -2.317919
  O 6.577254 0.212358 -2.289343
  H 0.588785 -0.184967 1.363393
  H 0.211265 -0.573015 -0.383929
  H 1.631241 0.887233 0.055810
  H 3.875814 0.909444 1.370714
  H 3.758213 -0.844154 1.410788
  H 2.774119 -0.630634 -3.149098
  H 2.717463 1.133376 -3.014933
  H 0.366509 0.953285 -2.149671
  H 0.446748 -0.800679 -2.369798
  H 0.829292 1.262714 -4.574980
  H -0.614208 0.280685 -4.319623
  H 0.907708 -0.487463 -4.785728
  H 4.951808 0.042455 -0.288589
  H 4.858635 0.333089 -3.322673
  H 6.874041 0.110698 -1.378212
 26
 73.011238
  C 0.898236 -0.248100 0.346127
  C 2.331475 0.097403 0.052562
  C 3.201119 0.110081 1.351675
  H 2.556242 0.176735 2.214126
  C 2.998244 0.098299 -1.186534
  C 2.351708 0.175494 -2.557107
  C 0.833138 0.158428 -2.720702
  C 0.464088 0.333119 -4.191932
  C 4.434696 0.119568 -1.223498
  C 5.217226 0.217491 -2.312783
  O 6.584560 0.221622 -2.272279
  H 0.577856 -0.243196 1.367962
  H 0.214495 -0.590504 -0.395669
  H 1.658023 0.908573 0.067740
  H 3.881231 0.959167 1.359074
  H 3.768029 -0.808593 1.420985
  H 2.755079 -0.650440 -3.153929
  H 2.716188 1.099382 -3.023996
  H 0.373781 0.967668 -2.149008
  H 0.428313 -0.794967 -2.378252
  H 0.839313 1.281216 -4.572303
  H -0.615567 0.315733 -4.319647
  H 0.892535 -0.467214 -4.789641
  H 4.960552 0.026560 -0.274251
  H 4.869493 0.317240 -3.330117
  H 6.875498 0.131884 -1.356259
 26
 72.336374
  C 0.925706 -0.358626 0.344081
  C 2.324679 0.111805 0.052598
  C 3.197693 0.160217 1.351883
  H 2.551740 0.230925 2.215348
  C 3.004615 0.085422 -1.195297
  C 2.357097 0.161283 -2.560580
  C 0.838249 0.166566 -2.714609
  C 0.460259 0.364422 -4.184075
  C 4.430970 0.116494 -1.223439
  C 5.222467 0.207018 -2.312478
  O 6.589597 0.199769 -2.263986
  H 0.571320 -0.300283 1.348943
  H 0.236079 -0.661888 -0.410902
  H 1.669387 0.936123 0.052601
  H 3.860477 1.020185 1.340620
  H 3.779589 -0.746908 1.437723
  H 2.746127 -0.668898 -3.154359
  H 2.732360 1.081272 -3.036063
  H 0.393758 0.976925 -2.127950
  H 0.421938 -0.785783 -2.380961
  H 0.844860 1.313466 -4.556270
  H -0.622104 0.362620 -4.304454
  H 0.874524 -0.434981 -4.795496
  H 4.949383 0.031055 -0.275794
  H 4.881613 0.296714 -3.329565
  H 6.874226 0.114594 -1.345890
 26
 71.652832
  C 0.967904 -0.469309 0.356055
  C 2.319287 0.123627 0.059497
  C 3.187093 0.220953 1.347163
  H 2.537917 0.293136 2.209118
  C 3.007470 0.084031 -1.197363
  C 2.357370 0.159562 -2.561832
  C 0.836178 0.181331 -2.716260
  C 0.461826 0.404399 -4.180740
  C 4.425460 0.126579 -1.220740
  C 5.223494 0.201776 -2.311441
  O 6.586827 0.154724 -2.260768
  H 0.578858 -0.358640 1.349276
  H 0.287033 -0.774477 -0.407778
  H 1.674467 0.945845 0.032007
  H 3.825886 1.099176 1.314784
  H 3.794748 -0.666497 1.456082
  H 2.741295 -0.679689 -3.157640
  H 2.738251 1.073105 -3.037729
  H 0.399830 0.985266 -2.118236
  H 0.409632 -0.770033 -2.397951
  H 0.855202 1.356398 -4.538741
  H -0.621849 0.413762 -4.301541
  H 0.870065 -0.390435 -4.804144
  H 4.941359 0.043645 -0.272258
  H 4.883687 0.270134 -3.332304
  H 6.869028 0.070845 -1.341656
 26
 69.804612
  C 1.012628 -0.582728 0.357253
  C 2.308811 0.133188 0.055792
  C 3.168243 0.290523 1.341185
  H 2.513279 0.372439 2.196717
  C 3.012759 0.068483 -1.206728
  C 2.359699 0.146322 -2.566195
  C 0.838955 0.211855 -2.707778
  C 0.458738 0.455056 -4.163428
  C 4.425698 0.096867 -1.222924
  C 5.231430 0.162084 -2.313584
  O 6.593204 0.161967 -2.253028
  H 0.577475 -0.417181 1.324896
  H 0.351659 -0.914580 -0.415572
  H 1.674589 0.960785 -0.013751
  H 3.783036 1.182383 1.283523
  H 3.799047 -0.578289 1.482447
  H 2.717355 -0.709624 -3.158046
  H 2.762506 1.044437 -3.053433
  H 0.431126 1.022342 -2.099393
  H 0.387609 -0.725903 -2.392387
  H 0.874996 1.399078 -4.518791
  H -0.625951 0.495067 -4.273747
  H 0.839857 -0.348022 -4.797085
  H 4.934536 0.022087 -0.274462
  H 4.893502 0.228432 -3.337691
  H 6.872556 0.103555 -1.331566
