 26
 0.000000
  C 1.011166 0.116082 0.348199
  C 2.487042 0.128949 0.377968
  C 3.242219 0.604173 1.561617
  C 2.438788 1.093476 2.763251
  C 3.371370 1.543112 3.883941
  C 3.140507 -0.328350 -0.761508
  C 4.523660 -0.397649 -0.935513
  C 5.170669 -0.855150 -2.079272
  C 4.531994 -1.350442 -3.316102
  H 3.453035 -1.355698 -3.328378
  O 6.483409 -0.879645 -2.142857
  H 0.560359 0.476060 1.265256
  H 0.653051 -0.897466 0.162363
  H 0.643627 0.728590 -0.476727
  H 3.903939 1.416814 1.241576
  H 3.897127 -0.207343 1.898195
  H 1.797930 0.295129 3.141533
  H 1.804462 1.934541 2.477921
  H 4.003737 0.723414 4.217756
  H 2.794799 1.890782 4.737593
  H 4.010393 2.359916 3.555676
  H 2.511560 -0.655386 -1.576495
  H 5.147428 -0.068688 -0.114958
  H 4.900478 -2.360251 -3.503655
  H 4.900017 -0.748780 -4.148662
  H 6.929542 -0.557038 -1.337313
 26
 5.041636
  C 1.014507 0.059399 0.372489
  C 2.461888 0.117198 0.372859
  C 3.231132 0.590118 1.541484
  C 2.438530 1.102216 2.741555
  C 3.384054 1.539809 3.856057
  C 3.133577 -0.333904 -0.768553
  C 4.505029 -0.387136 -0.926032
  C 5.157747 -0.833306 -2.051593
  C 4.514153 -1.329960 -3.279915
  H 3.433553 -1.318001 -3.230135
  O 6.457408 -0.845140 -2.105514
  H 0.519738 0.439175 1.254558
  H 0.606556 -0.920785 0.114538
  H 0.916767 0.706723 -0.481662
  H 3.914431 1.384702 1.220469
  H 3.868891 -0.235942 1.879235
  H 1.784374 0.318804 3.128213
  H 1.822613 1.955332 2.451207
  H 4.000391 0.708766 4.192393
  H 2.819520 1.905475 4.710361
  H 4.039141 2.340610 3.519417
  H 2.512978 -0.665022 -1.586215
  H 5.126848 -0.055562 -0.104959
  H 4.862967 -2.343063 -3.477923
  H 4.851746 -0.730041 -4.124513
  H 6.904728 -0.519642 -1.302492
 26
 14.056169
  C 0.991231 0.013018 0.410631
  C 2.428723 0.104033 0.387637
  C 3.223159 0.587517 1.549071
  C 2.433407 1.120722 2.748790
  C 3.383281 1.552795 3.863141
  C 3.108986 -0.345842 -0.773515
  C 4.491931 -0.385200 -0.930749
  C 5.160577 -0.829305 -2.065720
  C 4.525944 -1.337799 -3.301866
  H 3.446381 -1.340094 -3.256891
  O 6.465105 -0.826778 -2.119244
  H 0.478321 0.392968 1.280548
  H 0.555778 -0.895878 0.048166
  H 1.113121 0.728460 -0.413590
  H 3.926819 1.363190 1.227343
  H 3.836422 -0.257743 1.888586
  H 1.767942 0.350181 3.138746
  H 1.832087 1.980164 2.449237
  H 3.986099 0.715805 4.206384
  H 2.822660 1.932714 4.713043
  H 4.050926 2.340579 3.523144
  H 2.491149 -0.688310 -1.593066
  H 5.107598 -0.047456 -0.109523
  H 4.886100 -2.347739 -3.495064
  H 4.857126 -0.732703 -4.145175
  H 6.900098 -0.497341 -1.320580
 26
 22.188005
  C 0.995545 -0.008985 0.434976
  C 2.419358 0.106741 0.382722
  C 3.212846 0.595195 1.549449
  C 2.417577 1.125846 2.756383
  C 3.370908 1.562165 3.873272
  C 3.104535 -0.351589 -0.782676
  C 4.487998 -0.382202 -0.942184
  C 5.157545 -0.831693 -2.077741
  C 4.521416 -1.357929 -3.316059
  H 3.446435 -1.369249 -3.271714
  O 6.488940 -0.820958 -2.138246
  H 0.490346 0.323308 1.302088
  H 0.518004 -0.841711 -0.056086
  H 1.268365 0.790472 -0.281097
  H 3.920385 1.374764 1.230437
  H 3.817580 -0.261766 1.885960
  H 1.756809 0.350010 3.148319
  H 1.810564 1.985152 2.461160
  H 3.979857 0.726742 4.213761
  H 2.809719 1.938441 4.727357
  H 4.034775 2.354905 3.532699
  H 2.487475 -0.710715 -1.590435
  H 5.103229 -0.035919 -0.125138
  H 4.887934 -2.368418 -3.500817
  H 4.845276 -0.755618 -4.165285
  H 6.917493 -0.484891 -1.349454
 26
 27.718570
  C 0.991185 -0.034891 0.453859
  C 2.413831 0.104278 0.378483
  C 3.208829 0.593354 1.547733
  C 2.418217 1.118270 2.745525
  C 3.369917 1.570002 3.850371
  C 3.099315 -0.359260 -0.786780
  C 4.481092 -0.385939 -0.947946
  C 5.150784 -0.832607 -2.076093
  C 4.525488 -1.360080 -3.312526
  H 3.447223 -1.374852 -3.270873
  O 6.474627 -0.817884 -2.133525
  H 0.474370 0.241055 1.352447
  H 0.487089 -0.766299 -0.157586
  H 1.398885 0.853141 -0.147593
  H 3.905799 1.368479 1.230501
  H 3.810335 -0.259824 1.880410
  H 1.768280 0.335030 3.147580
  H 1.799171 1.970065 2.449400
  H 3.990914 0.742793 4.191169
  H 2.809674 1.943684 4.704971
  H 4.022952 2.368963 3.501324
  H 2.483471 -0.724763 -1.589181
  H 5.096177 -0.035440 -0.130697
  H 4.895404 -2.368233 -3.494008
  H 4.849290 -0.757045 -4.159410
  H 6.903126 -0.475157 -1.328287
 26
 31.470744
  C 0.985452 -0.061075 0.468573
  C 2.408973 0.096568 0.380789
  C 3.210952 0.587324 1.550115
  C 2.414462 1.111917 2.751399
  C 3.360674 1.589990 3.841148
  C 3.098410 -0.366070 -0.794712
  C 4.478653 -0.392453 -0.953560
  C 5.151247 -0.837908 -2.079829
  C 4.529045 -1.360457 -3.323638
  H 3.446261 -1.371043 -3.285498
  O 6.475217 -0.827007 -2.131561
  H 0.464663 0.158019 1.380318
  H 0.462436 -0.676654 -0.237484
  H 1.503333 0.892398 -0.027265
  H 3.894293 1.366179 1.225272
  H 3.823688 -0.259712 1.886127
  H 1.783986 0.321497 3.166216
  H 1.779320 1.947941 2.453488
  H 3.997481 0.780096 4.183783
  H 2.801030 1.959461 4.693226
  H 3.994216 2.395504 3.481103
  H 2.482254 -0.723996 -1.596073
  H 5.090324 -0.046883 -0.135814
  H 4.895948 -2.370893 -3.506949
  H 4.858351 -0.754704 -4.168283
  H 6.898654 -0.488643 -1.320644
 26
 34.932197
  C 0.981788 -0.077344 0.476799
  C 2.404292 0.107323 0.376512
  C 3.212294 0.588883 1.549072
  C 2.412167 1.102076 2.753303
  C 3.355741 1.597131 3.843972
  C 3.094877 -0.361463 -0.803112
  C 4.473497 -0.387946 -0.960041
  C 5.149768 -0.841523 -2.084416
  C 4.531964 -1.368045 -3.324595
  H 3.454941 -1.375184 -3.288311
  O 6.473362 -0.833278 -2.133180
  H 0.458934 0.119524 1.391051
  H 0.448443 -0.620401 -0.281049
  H 1.578898 0.911660 0.039662
  H 3.893962 1.385388 1.218773
  H 3.832694 -0.251211 1.880468
  H 1.800834 0.308414 3.166584
  H 1.765613 1.922849 2.459728
  H 4.007512 0.797559 4.184760
  H 2.791445 1.958042 4.700344
  H 3.975416 2.413568 3.482238
  H 2.469211 -0.724945 -1.611047
  H 5.085073 -0.038308 -0.142793
  H 4.895830 -2.379382 -3.501250
  H 4.864100 -0.767741 -4.170612
  H 6.895754 -0.490899 -1.319586
 26
 38.034268
  C 0.980430 -0.098353 0.479752
  C 2.396646 0.123181 0.368505
  C 3.213070 0.595042 1.551959
  C 2.414864 1.100159 2.753998
  C 3.360387 1.599034 3.847043
  C 3.093403 -0.353850 -0.811691
  C 4.468495 -0.380493 -0.964090
  C 5.146875 -0.838772 -2.081028
  C 4.530605 -1.374560 -3.326490
  H 3.455319 -1.380730 -3.294437
  O 6.474022 -0.830538 -2.123105
  H 0.450954 0.108000 1.393109
  H 0.445126 -0.616785 -0.303080
  H 1.637765 0.928266 0.051126
  H 3.887224 1.387939 1.227824
  H 3.834196 -0.247076 1.879706
  H 1.804018 0.296921 3.168878
  H 1.755653 1.926429 2.460865
  H 4.015812 0.805277 4.183474
  H 2.798466 1.952972 4.702092
  H 3.972626 2.416891 3.487901
  H 2.470866 -0.717007 -1.616693
  H 5.079010 -0.025831 -0.146784
  H 4.892553 -2.382887 -3.496140
  H 4.864768 -0.782493 -4.171538
  H 6.891507 -0.484431 -1.311179
 26
 40.893221
  C 0.981155 -0.117466 0.483214
  C 2.396114 0.136786 0.367205
  C 3.214926 0.600466 1.556597
  C 2.413942 1.100188 2.747383
  C 3.354506 1.599385 3.850437
  C 3.094040 -0.344793 -0.809679
  C 4.469278 -0.373910 -0.964567
  C 5.146544 -0.836602 -2.081512
  C 4.526260 -1.376683 -3.327650
  H 3.440702 -1.380638 -3.293424
  O 6.470631 -0.830049 -2.123670
  H 0.451326 0.100293 1.391746
  H 0.453807 -0.619688 -0.307204
  H 1.691122 0.934298 0.055974
  H 3.888071 1.393127 1.239061
  H 3.837929 -0.246058 1.887602
  H 1.810384 0.303800 3.150248
  H 1.758429 1.921172 2.451499
  H 4.014398 0.799760 4.191634
  H 2.780611 1.954268 4.712414
  H 3.973470 2.427218 3.493448
  H 2.477440 -0.708719 -1.611569
  H 5.081659 -0.018984 -0.152306
  H 4.888251 -2.391906 -3.496413
  H 4.862198 -0.785398 -4.179932
  H 6.889118 -0.482883 -1.314243
 26
 42.248182
  C 0.978554 -0.148844 0.492973
  C 2.385857 0.157920 0.362161
  C 3.213137 0.605049 1.555668
  C 2.415429 1.105225 2.753559
  C 3.358988 1.597260 3.852858
  C 3.093994 -0.341187 -0.823442
  C 4.465373 -0.366970 -0.971366
  C 5.147064 -0.835198 -2.084797
  C 4.531653 -1.379368 -3.322018
  H 3.445288 -1.382071 -3.289528
  O 6.471969 -0.829464 -2.123898
  H 0.437907 0.083784 1.391615
  H 0.452083 -0.631580 -0.306831
  H 1.733120 0.976570 0.039644
  H 3.892805 1.396700 1.240242
  H 3.829814 -0.250520 1.880846
  H 1.806491 0.306832 3.158987
  H 1.761009 1.931843 2.462362
  H 4.015178 0.796536 4.188210
  H 2.790863 1.950151 4.714638
  H 3.977810 2.421749 3.496728
  H 2.469241 -0.709592 -1.620805
  H 5.078951 -0.001865 -0.150100
  H 4.893649 -2.395492 -3.482947
  H 4.870130 -0.792956 -4.176145
  H 6.888961 -0.478135 -1.316060
 26
 44.119199
  C 0.982307 -0.167221 0.498576
  C 2.383932 0.176003 0.360591
  C 3.213635 0.611478 1.554962
  C 2.419587 1.104924 2.743702
  C 3.361716 1.594854 3.844347
  C 3.089578 -0.327149 -0.820601
  C 4.461913 -0.357013 -0.970156
  C 5.144252 -0.832207 -2.079886
  C 4.530148 -1.378465 -3.310855
  H 3.457283 -1.377820 -3.279786
  O 6.470418 -0.828838 -2.117692
  H 0.433610 0.075716 1.397787
  H 0.463630 -0.636096 -0.306828
  H 1.773006 0.990974 0.040613
  H 3.896784 1.409627 1.242060
  H 3.830891 -0.252330 1.881302
  H 1.798198 0.289987 3.152702
  H 1.772548 1.923985 2.454177
  H 4.014109 0.797575 4.177065
  H 2.794111 1.945300 4.704934
  H 3.979157 2.416688 3.492289
  H 2.466167 -0.696585 -1.613885
  H 5.066823 0.003121 -0.164475
  H 4.888779 -2.394867 -3.467055
  H 4.870608 -0.797684 -4.166463
  H 6.888085 -0.476691 -1.315672
 26
 43.633489
  C 0.989329 -0.203253 0.512790
  C 2.377662 0.196404 0.356556
  C 3.212894 0.613363 1.560587
  C 2.416679 1.117609 2.755777
  C 3.359322 1.597403 3.858861
  C 3.096225 -0.328432 -0.832289
  C 4.463237 -0.352778 -0.978968
  C 5.148676 -0.831809 -2.090631
  C 4.533120 -1.381594 -3.320598
  H 3.456314 -1.377276 -3.290809
  O 6.470484 -0.832741 -2.123768
  H 0.435664 0.047489 1.404767
  H 0.469885 -0.674727 -0.296213
  H 1.825999 1.050072 0.010361
  H 3.908202 1.402411 1.252893
  H 3.808451 -0.251204 1.880177
  H 1.787170 0.312257 3.162911
  H 1.772769 1.948471 2.463503
  H 4.004491 0.791850 4.193084
  H 2.792767 1.952179 4.716661
  H 3.985079 2.414103 3.508589
  H 2.466281 -0.700909 -1.622525
  H 5.067962 0.014608 -0.172838
  H 4.890017 -2.401126 -3.472786
  H 4.877900 -0.804660 -4.179762
  H 6.890207 -0.477659 -1.319407
 26
 44.333208
  C 1.000748 -0.229467 0.506414
  C 2.381813 0.208359 0.344835
  C 3.217861 0.615803 1.558367
  C 2.420085 1.123514 2.750401
  C 3.360818 1.603610 3.860836
  C 3.095519 -0.319381 -0.826915
  C 4.458900 -0.343688 -0.974107
  C 5.145056 -0.826999 -2.086628
  C 4.525985 -1.377804 -3.314230
  H 3.438899 -1.369414 -3.284859
  O 6.462233 -0.831448 -2.116679
  H 0.445542 0.019942 1.388785
  H 0.486993 -0.701424 -0.311194
  H 1.877982 1.064290 -0.004953
  H 3.910088 1.392805 1.259514
  H 3.808035 -0.254726 1.880583
  H 1.787833 0.325263 3.152534
  H 1.792041 1.940865 2.458073
  H 4.005439 0.792487 4.201673
  H 2.793007 1.960873 4.713195
  H 3.988909 2.415551 3.514382
  H 2.465682 -0.695062 -1.617369
  H 5.069159 0.028677 -0.164539
  H 4.875312 -2.384276 -3.462576
  H 4.869318 -0.813265 -4.164278
  H 6.885137 -0.475780 -1.314616
 26
 43.620004
  C 1.007694 -0.263113 0.519531
  C 2.376117 0.216426 0.341914
  C 3.217330 0.609370 1.564468
  C 2.418622 1.136333 2.758183
  C 3.363364 1.611333 3.872151
  C 3.094344 -0.328663 -0.832183
  C 4.455571 -0.348666 -0.978616
  C 5.144307 -0.823246 -2.094417
  C 4.525407 -1.370359 -3.332400
  H 3.462451 -1.357768 -3.305584
  O 6.456487 -0.834373 -2.115157
  H 0.447015 -0.014115 1.406828
  H 0.498702 -0.739329 -0.289821
  H 1.932975 1.098556 -0.025148
  H 3.925679 1.377292 1.267471
  H 3.784489 -0.260037 1.884630
  H 1.778240 0.353415 3.161901
  H 1.791797 1.971220 2.455346
  H 3.988578 0.804162 4.213964
  H 2.795153 1.980475 4.724838
  H 4.005664 2.416670 3.522112
  H 2.463307 -0.699286 -1.615087
  H 5.070973 0.029943 -0.160178
  H 4.880623 -2.404709 -3.488488
  H 4.880107 -0.790513 -4.199285
  H 6.882792 -0.484107 -1.302413
