 20
 0.000000
  H 1.432490 0.200892 0.551303
  C 2.494481 0.139232 0.397488
  H 3.125571 0.464726 1.207891
  C 3.002133 -0.319308 -0.744533
  C 4.416578 -0.420553 -0.997012
  C 5.070478 -0.856297 -2.083151
  C 4.613536 -1.389004 -3.410942
  C 3.128628 -1.511958 -3.718191
  C 2.926770 -2.075024 -5.121941
  O 6.443649 -0.860551 -2.093944
  H 2.328305 -0.632742 -1.525027
  H 5.035912 -0.087655 -0.167537
  H 5.080153 -2.373559 -3.520209
  H 5.080509 -0.753217 -4.170344
  H 2.652857 -0.531588 -3.661018
  H 2.652501 -2.180868 -2.999427
  H 3.378969 -1.422979 -5.866051
  H 1.866332 -2.164621 -5.345861
  H 3.378621 -3.060722 -5.209073
  H 6.786747 -0.523929 -1.254640
 20
 1.927630
  H 1.487677 0.043065 0.683768
  C 2.518632 0.154404 0.393036
  H 3.131573 0.763666 1.033590
  C 3.005826 -0.420011 -0.705826
  C 4.393644 -0.332321 -1.068245
  C 5.065509 -0.884451 -2.090180
  C 4.627602 -1.492124 -3.389318
  C 3.142004 -1.520559 -3.722716
  C 2.925987 -1.985900 -5.157937
  O 6.439789 -0.853943 -2.052923
  H 2.350453 -1.015616 -1.316733
  H 4.987826 0.263266 -0.374234
  H 5.029500 -2.508485 -3.434575
  H 5.156947 -0.920589 -4.165514
  H 2.718350 -0.525074 -3.598209
  H 2.623361 -2.203956 -3.051197
  H 3.414679 -1.312964 -5.855914
  H 1.859425 -2.013186 -5.395412
  H 3.337859 -2.986448 -5.302664
  H 6.694270 -0.606115 -1.154995
 20
 7.350234
  H 1.558084 -0.173892 0.797525
  C 2.500300 0.117650 0.375782
  H 2.984897 0.963145 0.827962
  C 3.042861 -0.532160 -0.654821
  C 4.383240 -0.305895 -1.099832
  C 5.059515 -0.894953 -2.107206
  C 4.619507 -1.523857 -3.393863
  C 3.148161 -1.401382 -3.765233
  C 2.904845 -1.922063 -5.177829
  O 6.432444 -0.880093 -2.007794
  H 2.506151 -1.366679 -1.079758
  H 4.899558 0.490893 -0.574624
  H 4.913566 -2.577854 -3.398164
  H 5.227806 -1.033122 -4.161978
  H 2.842309 -0.357099 -3.701670
  H 2.537553 -1.974592 -3.069234
  H 3.430257 -1.310625 -5.909508
  H 1.843073 -1.901506 -5.413815
  H 3.258620 -2.947403 -5.273112
  H 6.578791 -0.548838 -1.111365
 20
 19.061015
  H 1.575868 -0.054698 0.757366
  C 2.547848 0.166646 0.357628
  H 3.049865 1.027128 0.766644
  C 3.102858 -0.576201 -0.598618
  C 4.423630 -0.346157 -1.075097
  C 5.087064 -0.937879 -2.116818
  C 4.654836 -1.550715 -3.406866
  C 3.167307 -1.473361 -3.734941
  C 2.906460 -1.916427 -5.168522
  O 6.449333 -0.926536 -1.931211
  H 2.548534 -1.427494 -0.993328
  H 4.842076 0.600415 -0.747453
  H 4.992663 -2.595217 -3.450803
  H 5.226658 -1.013425 -4.173749
  H 2.816947 -0.451337 -3.597189
  H 2.601769 -2.113438 -3.056107
  H 3.397961 -1.245082 -5.873008
  H 1.843635 -1.912540 -5.380286
  H 3.289394 -2.920896 -5.334337
  H 6.396342 -0.688338 -0.964969
 20
 38.002479
  H 1.632861 -0.108875 0.800787
  C 2.576978 0.163049 0.359709
  H 3.084392 1.011303 0.799871
  C 3.145651 -0.571180 -0.601935
  C 4.437490 -0.324467 -1.102895
  C 5.096322 -0.962538 -2.138270
  C 4.651642 -1.613135 -3.385556
  C 3.178602 -1.461351 -3.738469
  C 2.924950 -1.888482 -5.180152
  O 6.433046 -0.966302 -1.841461
  H 2.643813 -1.474045 -0.937846
  H 4.768088 0.702750 -0.955580
  H 4.952779 -2.667841 -3.395926
  H 5.252637 -1.138035 -4.171373
  H 2.887669 -0.417207 -3.611401
  H 2.565362 -2.075118 -3.072666
  H 3.424121 -1.223934 -5.880979
  H 1.857999 -1.868744 -5.392673
  H 3.274707 -2.906758 -5.343589
  H 6.142428 -0.560547 -0.920952
 20
 54.997815
  H 1.610487 -0.124396 0.749174
  C 2.570055 0.139462 0.341618
  H 3.022394 1.039022 0.726466
  C 3.175450 -0.611091 -0.576702
  C 4.501846 -0.349732 -1.090372
  C 5.170230 -0.984737 -2.163452
  C 4.691444 -1.587930 -3.435124
  C 3.205598 -1.429012 -3.741350
  C 2.891595 -1.892401 -5.159185
  O 6.433022 -1.005516 -1.895327
  H 2.699589 -1.521799 -0.912180
  H 4.823975 0.682888 -0.947494
  H 4.973713 -2.645813 -3.450951
  H 5.281714 -1.110718 -4.227680
  H 2.921384 -0.381380 -3.626119
  H 2.615824 -2.015436 -3.037465
  H 3.396224 -1.264279 -5.890217
  H 1.821949 -1.843455 -5.347109
  H 3.218495 -2.919680 -5.306906
  H 5.931457 -0.522560 -0.713628
 20
 28.256143
  H 1.577765 -0.209619 0.491465
  C 2.563938 0.076629 0.169698
  H 2.940183 1.014565 0.549172
  C 3.276626 -0.673034 -0.652500
  C 4.659588 -0.341605 -1.069041
  C 5.329713 -1.008023 -2.219159
  C 4.765350 -1.634483 -3.440671
  C 3.278607 -1.417781 -3.670115
  C 2.852582 -1.816855 -5.073726
  O 6.535324 -1.015984 -2.028831
  H 2.893838 -1.619920 -0.985246
  H 4.823512 0.744838 -1.067087
  H 5.034259 -2.682347 -3.457099
  H 5.308248 -1.131666 -4.253248
  H 3.039537 -0.365550 -3.485577
  H 2.702160 -1.996339 -2.950393
  H 3.311409 -1.182052 -5.825303
  H 1.770805 -1.736433 -5.172755
  H 3.142100 -2.849261 -5.275709
  H 5.677188 -0.458590 -0.527765
 20
 9.292792
  H 1.586133 -0.211969 0.506484
  C 2.584148 0.062113 0.231265
  H 2.960946 0.977613 0.655964
  C 3.301386 -0.663122 -0.614691
  C 4.694161 -0.324044 -1.037016
  C 5.378828 -0.987641 -2.213875
  C 4.744522 -1.511473 -3.481040
  C 3.243463 -1.353706 -3.699066
  C 2.850612 -1.892383 -5.074991
  O 6.580123 -1.055212 -2.074814
  H 2.902293 -1.577298 -1.020329
  H 4.899414 0.754388 -1.003440
  H 5.014826 -2.571999 -3.538082
  H 5.286749 -1.042547 -4.310617
  H 2.962770 -0.298101 -3.609567
  H 2.697273 -1.922450 -2.953761
  H 3.336296 -1.325860 -5.863637
  H 1.774792 -1.828747 -5.218339
  H 3.149157 -2.934448 -5.174641
  H 5.511886 -0.616621 -0.332190
 20
 1.178815
  H 1.586965 -0.253964 0.427939
  C 2.573584 0.049091 0.122556
  H 2.907183 1.010950 0.476667
  C 3.339729 -0.723693 -0.627680
  C 4.723398 -0.339588 -1.037253
  C 5.428125 -0.994651 -2.206521
  C 4.742990 -1.536824 -3.441402
  C 3.239375 -1.374215 -3.634596
  C 2.835467 -1.821203 -5.036729
  O 6.636122 -1.079652 -2.120048
  H 2.983742 -1.693588 -0.936715
  H 4.798305 0.745833 -1.175324
  H 5.022372 -2.591346 -3.520674
  H 5.249897 -1.033653 -4.273759
  H 2.958284 -0.328908 -3.493324
  H 2.688990 -1.974732 -2.912767
  H 3.307966 -1.197426 -5.792563
  H 1.757544 -1.751804 -5.161459
  H 3.134440 -2.852824 -5.209316
  H 5.449189 -0.532775 -0.227309
 20
 3.698598
  H 1.592579 0.015586 0.545828
  C 2.646511 0.103124 0.345676
  H 3.216231 0.693904 1.044988
  C 3.211397 -0.496648 -0.686727
  C 4.675121 -0.376699 -0.978325
  C 5.357675 -0.914494 -2.222407
  C 4.700543 -1.445628 -3.483193
  C 3.192890 -1.474864 -3.699893
  C 2.877525 -1.994497 -5.100046
  O 6.570043 -0.913594 -2.196826
  H 2.606024 -1.083191 -1.352724
  H 4.962613 0.680652 -0.923141
  H 5.098241 -2.458158 -3.609848
  H 5.151578 -0.852842 -4.287513
  H 2.775776 -0.471951 -3.590963
  H 2.716599 -2.138084 -2.976917
  H 3.330655 -1.360034 -5.858584
  H 1.802804 -2.009733 -5.265234
  H 3.257093 -3.005831 -5.227039
  H 5.254822 -0.840439 -0.168598
 20
 -5.618635
  H 1.740067 -1.169444 0.433017
  C 2.451241 -0.567979 -0.110310
  H 2.126640 0.424928 -0.384239
  C 3.653478 -1.017989 -0.419978
  C 4.694947 -0.207400 -1.135700
  C 5.454473 -1.023694 -2.164797
  C 4.653808 -1.633052 -3.293132
  C 3.408560 -0.871122 -3.743442
  C 2.745885 -1.568237 -4.925667
  O 6.641493 -1.214604 -2.062298
  H 3.956317 -2.015064 -0.128648
  H 4.235090 0.652057 -1.622102
  H 4.364820 -2.633207 -2.956450
  H 5.330824 -1.771815 -4.136443
  H 3.688341 0.142043 -4.037964
  H 2.693564 -0.803718 -2.922236
  H 3.430855 -1.627758 -5.770880
  H 1.859129 -1.022530 -5.241011
  H 2.447747 -2.578586 -4.654803
  H 5.419441 0.163750 -0.414401
