 26
 0.000000
  C 1.001843 0.119379 0.347920
  C 2.477088 0.129617 0.373503
  C 3.239927 0.603512 1.553045
  C 2.442758 1.088858 2.760839
  C 3.382949 1.536713 3.876116
  C 3.128325 -0.328631 -0.767674
  C 4.511108 -0.397875 -0.940480
  C 5.172020 -0.853169 -2.075665
  C 4.554691 -1.352202 -3.319166
  H 3.475032 -1.350178 -3.314138
  O 6.482012 -0.866428 -2.109893
  H 0.553069 0.486842 1.262475
  H 0.642307 -0.893915 0.162557
  H 0.642377 0.722925 -0.486882
  H 3.899515 1.417169 1.230838
  H 3.899398 -0.206954 1.883363
  H 1.805716 0.288367 3.140924
  H 1.806023 1.930023 2.481422
  H 4.018463 0.716659 4.203084
  H 2.812928 1.881897 4.735182
  H 4.018779 2.354851 3.544961
  H 2.497508 -0.655423 -1.581293
  H 5.134452 -0.068413 -0.119966
  H 4.920537 -2.362494 -3.506932
  H 4.920599 -0.752044 -4.153237
  H 6.914397 -0.541470 -1.299869
 26
 15.344816
  C 1.119647 0.076673 0.240580
  C 2.590259 0.122594 0.353150
  C 3.283176 0.610751 1.568759
  C 2.414857 1.080658 2.740879
  C 3.291418 1.546043 3.901467
  C 3.340307 -0.329735 -0.773080
  C 4.683648 -0.344623 -0.812387
  C 5.061553 -0.824747 -2.005321
  C 4.334164 -1.303216 -3.194806
  H 3.255738 -1.280915 -3.139974
  O 6.401856 -0.928748 -2.262902
  H 0.607710 0.431989 1.126034
  H 0.796765 -0.947310 0.027942
  H 0.795909 0.668749 -0.621098
  H 3.947411 1.438278 1.282393
  H 3.947932 -0.184855 1.933538
  H 1.776916 0.266976 3.089896
  H 1.776611 1.909816 2.430987
  H 3.926444 0.738386 4.258731
  H 2.674096 1.878984 4.732494
  H 3.926384 2.376913 3.602197
  H 2.729839 -0.657269 -1.587326
  H 5.349535 -0.031887 -0.037356
  H 4.664836 -2.319277 -3.402807
  H 4.665123 -0.714393 -4.048559
  H 6.967836 -0.631568 -1.520798
 26
 50.979895
  C 1.200933 0.055284 0.189079
  C 2.654645 0.127887 0.367663
  C 3.295869 0.622350 1.597627
  C 2.387851 1.079141 2.737982
  C 3.218885 1.556072 3.924773
  C 3.502268 -0.325872 -0.762952
  C 4.823223 -0.311875 -0.730943
  C 4.957214 -0.800201 -1.943080
  C 4.196142 -1.280732 -3.141894
  H 3.120227 -1.276579 -3.138062
  O 6.309838 -0.982686 -2.393795
  H 0.646497 0.400933 1.049582
  H 0.906259 -0.968554 -0.035647
  H 0.905166 0.638058 -0.681790
  H 3.957775 1.449691 1.330398
  H 3.959517 -0.159232 1.976408
  H 1.750398 0.255177 3.065380
  H 1.748828 1.899885 2.405464
  H 3.853252 0.757379 4.302880
  H 2.570487 1.880500 4.735104
  H 3.851658 2.395924 3.645523
  H 2.875016 -0.653044 -1.576792
  H 5.551237 -0.014951 0.010385
  H 4.538471 -2.299341 -3.342362
  H 4.542308 -0.686291 -3.991259
  H 6.968032 -0.710501 -1.715799
 26
 96.582014
  C 1.232589 0.039879 0.153758
  C 2.679934 0.125130 0.361331
  C 3.303797 0.621143 1.595295
  C 2.380841 1.072582 2.722302
  C 3.194674 1.554473 3.920137
  C 3.569961 -0.331841 -0.779695
  C 4.895090 -0.286000 -0.673727
  C 4.853785 -0.774889 -1.882878
  C 4.129624 -1.257250 -3.085869
  H 3.046346 -1.256320 -3.095356
  O 6.309712 -1.009090 -2.454346
  H 0.658934 0.382903 1.009596
  H 0.947466 -0.988290 -0.075289
  H 0.945236 0.623010 -0.722721
  H 3.966373 1.453837 1.336691
  H 3.969140 -0.157268 1.983222
  H 1.743414 0.245371 3.041056
  H 1.741640 1.889201 2.380876
  H 3.828331 0.759032 4.306851
  H 2.534274 1.875492 4.721970
  H 3.826529 2.397757 3.649481
  H 2.912981 -0.641171 -1.550771
  H 5.632126 0.000572 0.037009
  H 4.482940 -2.273945 -3.280460
  H 4.489784 -0.662991 -3.930584
  H 6.977283 -0.754957 -1.809069
 26
 136.908672
  C 1.221564 0.043513 0.161857
  C 2.669403 0.123580 0.357806
  C 3.302396 0.618509 1.589704
  C 2.378674 1.071297 2.720975
  C 3.192982 1.552160 3.915441
  C 3.545481 -0.334308 -0.788845
  C 4.905993 -0.269129 -0.642967
  C 4.709350 -0.755401 -1.838766
  C 4.131064 -1.256806 -3.082172
  H 3.046796 -1.278194 -3.153502
  O 6.399464 -1.037931 -2.520572
  H 0.666446 0.388340 1.022917
  H 0.923124 -0.984710 -0.060532
  H 0.921110 0.632146 -0.708989
  H 3.964440 1.450703 1.331326
  H 3.967756 -0.159213 1.977123
  H 1.742202 0.244258 3.039900
  H 1.739580 1.888089 2.382262
  H 3.826847 0.757277 4.301254
  H 2.534169 1.872480 4.717349
  H 3.823316 2.394740 3.645162
  H 2.827685 -0.627349 -1.524877
  H 5.653034 0.008594 0.047428
  H 4.529711 -2.264785 -3.251242
  H 4.541010 -0.658183 -3.905132
  H 7.046835 -0.776382 -1.861184
 26
 143.066404
  C 1.063202 0.059715 0.249454
  C 2.545417 0.107446 0.342326
  C 3.250145 0.602260 1.554611
  C 2.388522 1.065952 2.725133
  C 3.268297 1.540533 3.880970
  C 3.274776 -0.326328 -0.756192
  C 4.794086 -0.241169 -0.675841
  C 4.420287 -0.742130 -1.782714
  C 4.215716 -1.238575 -3.102832
  H 3.183788 -1.329851 -3.420471
  O 6.867823 -1.115969 -2.587920
  H 0.590247 0.421343 1.154663
  H 0.719931 -0.958273 0.066507
  H 0.706895 0.663180 -0.585441
  H 3.907394 1.430322 1.267749
  H 3.922868 -0.184139 1.916624
  H 1.755221 0.248726 3.076447
  H 1.745149 1.890647 2.413535
  H 3.922828 0.746262 4.233061
  H 2.656854 1.886786 4.710497
  H 3.892380 2.375289 3.567975
  H 2.519679 -0.614616 -1.486236
  H 5.557836 0.045409 0.005543
  H 4.713864 -2.206870 -3.182047
  H 4.772862 -0.601443 -3.793580
  H 7.520192 -0.882829 -1.922541
 26
 143.157612
  C 1.011497 0.060392 0.280344
  C 2.505419 0.117075 0.347386
  C 3.226349 0.627435 1.549530
  C 2.377873 1.081453 2.733542
  C 3.270777 1.544814 3.883767
  C 3.217110 -0.327380 -0.748617
  C 4.750922 -0.228307 -0.661718
  C 4.323089 -0.744535 -1.744904
  C 4.191897 -1.218652 -3.090101
  H 3.184047 -1.299740 -3.471780
  O 7.185024 -1.208142 -2.725971
  H 0.548127 0.428148 1.188186
  H 0.673427 -0.962319 0.109163
  H 0.638436 0.646618 -0.558221
  H 3.879222 1.454169 1.256135
  H 3.893180 -0.161648 1.905073
  H 1.758322 0.254705 3.085027
  H 1.724028 1.904102 2.437713
  H 3.924081 0.742447 4.220719
  H 2.665880 1.870104 4.727063
  H 3.891503 2.386397 3.580967
  H 2.453091 -0.622415 -1.480082
  H 5.489047 0.069763 0.040423
  H 4.706080 -2.186354 -3.159334
  H 4.818645 -0.585132 -3.728256
  H 7.872686 -0.988364 -2.099241
 26
 141.211182
  C 0.946092 0.085631 0.351100
  C 2.439140 0.131261 0.389759
  C 3.162805 0.637077 1.574043
  C 2.325142 1.099271 2.765356
  C 3.234519 1.568912 3.913050
  C 3.119847 -0.325262 -0.723460
  C 4.689212 -0.243460 -0.659522
  C 4.254082 -0.752891 -1.732028
  C 4.194604 -1.205649 -3.087414
  H 3.196817 -1.281590 -3.511664
  O 7.764600 -1.368210 -3.064530
  H 0.507323 0.457408 1.265358
  H 0.596257 -0.938890 0.195436
  H 0.559593 0.677630 -0.472133
  H 3.819314 1.464425 1.274255
  H 3.823247 -0.151535 1.922627
  H 1.708558 0.286052 3.125942
  H 1.666604 1.925822 2.473012
  H 3.884751 0.763512 4.251482
  H 2.638631 1.895032 4.760693
  H 3.853438 2.400680 3.608411
  H 2.355681 -0.639253 -1.456385
  H 5.377711 0.071952 0.080962
  H 4.706394 -2.171386 -3.154620
  H 4.830227 -0.543775 -3.686164
  H 8.509334 -1.164714 -2.501811
 26
 143.452436
  C 0.913120 0.113877 0.352387
  C 2.407738 0.135804 0.406876
  C 3.129682 0.631114 1.597729
  C 2.290926 1.113180 2.780317
  C 3.200820 1.568340 3.932268
  C 3.095680 -0.322523 -0.698693
  C 4.680867 -0.212640 -0.635073
  C 4.199809 -0.740611 -1.680595
  C 4.163879 -1.216374 -3.034974
  H 3.169334 -1.308820 -3.463300
  O 8.085848 -1.435457 -3.305203
  H 0.469690 0.494177 1.266090
  H 0.551203 -0.907297 0.198743
  H 0.538282 0.714409 -0.477849
  H 3.795765 1.443450 1.304262
  H 3.779303 -0.174304 1.952935
  H 1.652394 0.303304 3.149671
  H 1.648193 1.950623 2.476669
  H 3.829538 0.744464 4.277347
  H 2.602912 1.909348 4.778062
  H 3.846498 2.390398 3.631391
  H 2.338320 -0.639956 -1.418717
  H 5.377758 0.127253 0.093619
  H 4.680316 -2.182070 -3.087620
  H 4.785628 -0.550564 -3.643917
  H 8.841519 -1.210722 -2.767181
 26
 137.783250
  C 0.810554 0.169988 0.439532
  C 2.306080 0.197776 0.453008
  C 3.059709 0.662760 1.641452
  C 2.248233 1.119812 2.851988
  C 3.180304 1.574781 3.980191
  C 2.950029 -0.277285 -0.665874
  C 4.514818 -0.224922 -0.673170
  C 4.109669 -0.750969 -1.741580
  C 4.063000 -1.256871 -3.068167
  H 3.060967 -1.363661 -3.477266
  O 9.086746 -1.590522 -3.629704
  H 0.389740 0.557954 1.358539
  H 0.442713 -0.849430 0.302207
  H 0.422434 0.764731 -0.387019
  H 3.704431 1.492621 1.344348
  H 3.723271 -0.142550 1.967535
  H 1.625702 0.300610 3.222853
  H 1.592389 1.955922 2.580666
  H 3.830598 0.763433 4.308532
  H 2.602182 1.905024 4.841303
  H 3.803917 2.404603 3.660782
  H 2.223915 -0.575687 -1.416804
  H 5.148417 0.095018 0.115197
  H 4.555952 -2.234422 -3.092234
  H 4.649937 -0.592211 -3.709114
  H 9.824967 -1.295970 -3.100038
 26
 10000.000000
  C 0.799061 0.174331 0.458205
  C 2.294165 0.210917 0.487867
  C 3.032132 0.680699 1.684227
  C 2.204918 1.133352 2.885732
  C 3.122024 1.594151 4.023792
  C 3.011834 -0.302843 -0.723131
  C 4.517686 -0.236067 -0.699238
  C 4.098670 -0.744688 -1.729066
  C 4.036007 -1.247644 -3.056115
  H 3.029352 -1.348560 -3.455240
  O 9.166592 -1.622140 -3.710804
  H 0.366044 0.560105 1.372455
  H 0.438726 -0.847275 0.317290
  H 0.416428 0.766521 -0.372725
  H 3.675146 1.514244 1.393809
  H 3.696844 -0.120592 2.017782
  H 1.583231 0.310621 3.250143
  H 1.547148 1.965506 2.607007
  H 3.773480 0.786743 4.359463
  H 2.532678 1.921259 4.878468
  H 3.744173 2.427525 3.710841
  H 2.295709 -0.605972 -1.481723
  H 5.151999 0.087946 0.086888
  H 4.523749 -2.227610 -3.087125
  H 4.619766 -0.584638 -3.701661
  H 9.911148 -1.330884 -3.188229
