 19
 0.000000
  H 1.505843 0.146488 0.416611
  C 2.587355 0.133941 0.384352
  C 3.281756 0.614135 1.577110
  C 2.358675 1.063783 2.698682
  H 2.935077 1.406885 3.551743
  C 3.181458 -0.330215 -0.770429
  C 4.569946 -0.412433 -0.974654
  C 5.174885 -0.872948 -2.122914
  C 4.529254 -1.357038 -3.332339
  H 3.445121 -1.343951 -3.302374
  H 6.257244 -0.879891 -2.138476
  H 3.957200 1.436246 1.299583
  H 3.958956 -0.169997 1.945155
  H 1.720019 0.247947 3.027515
  H 1.718474 1.879371 2.372317
  H 2.525033 -0.650273 -1.567597
  H 5.214536 -0.090031 -0.169509
  H 4.883876 -2.370196 -3.546107
  H 4.885482 -0.772555 -4.186334
 19
 4.858827
  H 1.520148 0.140851 0.401819
  C 2.596160 0.144123 0.408929
  C 3.258617 0.626838 1.608383
  C 2.313717 1.069059 2.712280
  H 2.873408 1.416691 3.576758
  C 3.237764 -0.303316 -0.704374
  C 4.601554 -0.411543 -0.972736
  C 5.159122 -0.885731 -2.154531
  C 4.480944 -1.364237 -3.349966
  H 3.397127 -1.346568 -3.309041
  H 6.244045 -0.905904 -2.202484
  H 3.934462 1.449456 1.340838
  H 3.936658 -0.150796 1.983497
  H 1.674658 0.247740 3.029769
  H 1.672845 1.880659 2.374219
  H 2.786210 -0.661136 -1.595444
  H 5.306101 -0.102073 -0.199602
  H 4.823934 -2.379129 -3.569503
  H 4.825870 -0.782876 -4.209553
 19
 15.041489
  H 1.523169 0.137085 0.393578
  C 2.606917 0.152383 0.429109
  C 3.240373 0.639778 1.637803
  C 2.278839 1.071336 2.718632
  H 2.820952 1.423764 3.592739
  C 3.287775 -0.287696 -0.665532
  C 4.629041 -0.413133 -0.973641
  C 5.143479 -0.895632 -2.176933
  C 4.441433 -1.368589 -3.361954
  H 3.362101 -1.347974 -3.316060
  H 6.219162 -0.927873 -2.252942
  H 3.915472 1.463729 1.380796
  H 3.919922 -0.129648 2.020837
  H 1.640909 0.243626 3.024361
  H 1.636423 1.877650 2.368255
  H 3.005863 -0.664904 -1.605430
  H 5.377758 -0.122769 -0.245139
  H 4.774853 -2.382184 -3.584276
  H 4.778222 -0.789628 -4.221810
 19
 28.659487
  H 1.523502 0.127625 0.377244
  C 2.608733 0.152803 0.432873
  C 3.225628 0.650666 1.660597
  C 2.243087 1.078413 2.734938
  H 2.773728 1.437276 3.619983
  C 3.316220 -0.281074 -0.646188
  C 4.664269 -0.424468 -0.993777
  C 5.140973 -0.903252 -2.192447
  C 4.408383 -1.370785 -3.371235
  H 3.325485 -1.343197 -3.309575
  H 6.213567 -0.944270 -2.288628
  H 3.901640 1.479908 1.410350
  H 3.909525 -0.114684 2.052146
  H 1.604854 0.243570 3.034309
  H 1.596646 1.882489 2.374776
  H 3.190238 -0.669069 -1.614910
  H 5.451126 -0.150398 -0.298860
  H 4.730195 -2.387470 -3.600402
  H 4.735030 -0.791609 -4.236041
 19
 43.796049
  H 1.521862 0.112753 0.384310
  C 2.604806 0.149011 0.439826
  C 3.214035 0.661360 1.666649
  C 2.220859 1.085077 2.743708
  H 2.745994 1.452910 3.628539
  C 3.316946 -0.278982 -0.628485
  C 4.673378 -0.443132 -1.003987
  C 5.140191 -0.915645 -2.210023
  C 4.392901 -1.367828 -3.382101
  H 3.308091 -1.331039 -3.304746
  H 6.212337 -0.963130 -2.315482
  H 3.884837 1.497846 1.414081
  H 3.907885 -0.098203 2.059799
  H 1.589666 0.244375 3.045129
  H 1.565698 1.881766 2.380336
  H 3.319283 -0.665453 -1.604402
  H 5.487864 -0.186982 -0.320175
  H 4.702050 -2.388577 -3.622487
  H 4.715376 -0.781656 -4.246853
 19
 53.767375
  H 1.553382 0.035411 0.436035
  C 2.641240 0.118949 0.455041
  C 3.231925 0.721962 1.690808
  C 2.197336 1.093239 2.727808
  H 2.682678 1.502168 3.604994
  C 3.328850 -0.288477 -0.584845
  C 4.679391 -0.525642 -1.031252
  C 5.155223 -0.946541 -2.213249
  C 4.383333 -1.342740 -3.416937
  H 3.301164 -1.270350 -3.299805
  H 6.225278 -1.016469 -2.320089
  H 3.838451 1.596857 1.441417
  H 3.937957 -0.011188 2.096611
  H 1.619728 0.227291 3.027735
  H 1.513257 1.842909 2.348203
  H 3.393171 -0.676376 -1.602571
  H 5.472660 -0.310641 -0.301335
  H 4.630617 -2.366233 -3.701623
  H 4.705558 -0.725785 -4.256559
 19
 59.433851
  H 1.558993 0.006580 0.489924
  C 2.644654 0.104442 0.475023
  C 3.232035 0.752923 1.713822
  C 2.176404 1.113645 2.750584
  H 2.651811 1.557484 3.619544
  C 3.317838 -0.300532 -0.561642
  C 4.667651 -0.583882 -1.069811
  C 5.167128 -0.977986 -2.254992
  C 4.402431 -1.329473 -3.465166
  H 3.329295 -1.235755 -3.338192
  H 6.241888 -1.061250 -2.351275
  H 3.794300 1.639813 1.425266
  H 3.952286 0.041457 2.140031
  H 1.629791 0.235004 3.077292
  H 1.468084 1.836908 2.354067
  H 3.434217 -0.689770 -1.588929
  H 5.427146 -0.398492 -0.292520
  H 4.626273 -2.349076 -3.762397
  H 4.721700 -0.697463 -4.285741
 19
 64.436563
  H 1.561133 -0.063796 0.559589
  C 2.638369 0.071556 0.518119
  C 3.224424 0.783741 1.710885
  C 2.173932 1.142084 2.742445
  H 2.645306 1.640869 3.588473
  C 3.299692 -0.343831 -0.519246
  C 4.658097 -0.663816 -1.064409
  C 5.164470 -1.003048 -2.258976
  C 4.407887 -1.282415 -3.504711
  H 3.327554 -1.173840 -3.393513
  H 6.239531 -1.100167 -2.341208
  H 3.739960 1.686467 1.373397
  H 3.971122 0.123135 2.148764
  H 1.668146 0.252470 3.113385
  H 1.431780 1.819911 2.328620
  H 3.471885 -0.751720 -1.548703
  H 5.395024 -0.547173 -0.255570
  H 4.621800 -2.293015 -3.847758
  H 4.754547 -0.613585 -4.292909
 19
 69.176529
  H 1.529957 -0.100773 0.594605
  C 2.608625 0.051962 0.530258
  C 3.219896 0.797431 1.691749
  C 2.189285 1.166813 2.749407
  H 2.676138 1.689122 3.571816
  C 3.247418 -0.376482 -0.513183
  C 4.616263 -0.703661 -1.062114
  C 5.152705 -1.011200 -2.259644
  C 4.429341 -1.252458 -3.526016
  H 3.355376 -1.145311 -3.443482
  H 6.230478 -1.106722 -2.314046
  H 3.712316 1.697136 1.320722
  H 3.991426 0.152498 2.125406
  H 1.705553 0.277269 3.151874
  H 1.426228 1.827524 2.341022
  H 3.483571 -0.797645 -1.528896
  H 5.326947 -0.620073 -0.227214
  H 4.653033 -2.254519 -3.888141
  H 4.797118 -0.565559 -4.287347
 19
 72.405907
  H 1.512927 -0.134533 0.645266
  C 2.581222 0.026652 0.544558
  C 3.215938 0.810293 1.666511
  C 2.211158 1.190991 2.739368
  H 2.712007 1.739576 3.533992
  C 3.194299 -0.423306 -0.503391
  C 4.576458 -0.756573 -1.050951
  C 5.146815 -1.018025 -2.244821
  C 4.454441 -1.209577 -3.539510
  H 3.360559 -1.102670 -3.477335
  H 6.223842 -1.106919 -2.274103
  H 3.689304 1.716725 1.253826
  H 4.002080 0.190631 2.091602
  H 1.752001 0.310876 3.174164
  H 1.434075 1.826928 2.338219
  H 3.488227 -0.866625 -1.510712
  H 5.254144 -0.722748 -0.195946
  H 4.686606 -2.190245 -3.932163
  H 4.839760 -0.499931 -4.260878
 19
 74.871675
  H 1.485696 -0.163115 0.695430
  C 2.558633 0.003809 0.557556
  C 3.214814 0.826023 1.638473
  C 2.234105 1.223417 2.725308
  H 2.751454 1.800885 3.496057
  C 3.151291 -0.472276 -0.488871
  C 4.542256 -0.812772 -1.038712
  C 5.138773 -1.024335 -2.232232
  C 4.471083 -1.159731 -3.549824
  H 3.392150 -1.054851 -3.504937
  H 6.218811 -1.108122 -2.240949
  H 3.662735 1.718636 1.190347
  H 4.021400 0.225515 2.062146
  H 1.792111 0.341998 3.198881
  H 1.434664 1.844129 2.324526
  H 3.491287 -0.943335 -1.491417
  H 5.200186 -0.838012 -0.156941
  H 4.712866 -2.127319 -3.980484
  H 4.873767 -0.416537 -4.240092
 19
 76.666055
  H 1.483473 -0.191916 0.730562
  C 2.548239 -0.028099 0.573569
  C 3.216126 0.840973 1.618702
  C 2.249941 1.261756 2.706773
  H 2.772636 1.874088 3.448430
  C 3.129266 -0.522684 -0.469608
  C 4.518327 -0.873477 -1.028397
  C 5.136446 -1.038674 -2.226307
  C 4.490751 -1.101261 -3.553992
  H 3.399502 -0.982684 -3.519795
  H 6.208740 -1.130482 -2.219235
  H 3.640656 1.720229 1.133672
  H 4.040393 0.267161 2.049215
  H 1.831244 0.391256 3.218108
  H 1.435257 1.854255 2.299215
  H 3.500125 -1.018746 -1.474970
  H 5.149685 -0.966370 -0.134142
  H 4.729719 -2.046999 -4.027678
  H 4.911900 -0.332827 -4.198621
 19
 77.384178
  H 1.504941 -0.200115 0.750997
  C 2.558360 -0.029566 0.588210
  C 3.218446 0.866157 1.612106
  C 2.244584 1.297934 2.699024
  H 2.754463 1.925316 3.420239
  C 3.141745 -0.536818 -0.447086
  C 4.518844 -0.929863 -1.027297
  C 5.136178 -1.065642 -2.231528
  C 4.494748 -1.048520 -3.559992
  H 3.428588 -0.894799 -3.523534
  H 6.215882 -1.195290 -2.223919
  H 3.632915 1.742520 1.106030
  H 4.050607 0.311657 2.049879
  H 1.844718 0.438884 3.227014
  H 1.419930 1.868555 2.283432
  H 3.516653 -1.096226 -1.460013
  H 5.129620 -1.071604 -0.141813
  H 4.701957 -1.982336 -4.073901
  H 4.944346 -0.266153 -4.173781
 19
 76.854638
  H 1.540515 -0.248119 0.767618
  C 2.592064 -0.033665 0.597535
  C 3.222355 0.906473 1.606603
  C 2.229853 1.339712 2.667546
  H 2.714288 2.009045 3.371889
  C 3.207985 -0.552684 -0.412546
  C 4.532134 -1.001064 -1.015083
  C 5.136167 -1.108708 -2.241275
  C 4.485820 -0.968321 -3.555588
  H 3.425345 -0.743077 -3.498186
  H 6.203415 -1.314517 -2.250747
  H 3.617687 1.777799 1.082229
  H 4.067637 0.386933 2.069166
  H 1.852229 0.482321 3.222920
  H 1.386750 1.869651 2.224746
  H 3.557980 -1.169377 -1.437893
  H 5.139776 -1.238043 -0.141921
  H 4.629054 -1.883655 -4.131832
  H 4.981692 -0.186658 -4.125483
