 25
 0.000000
  C 1.008564 0.119912 0.351133
  C 2.480135 0.130950 0.377844
  C 3.241016 0.603595 1.553009
  C 2.447583 1.089435 2.761722
  C 3.388285 1.537525 3.876166
  C 3.132052 -0.328723 -0.766070
  C 4.522310 -0.401283 -0.947723
  C 5.148567 -0.856259 -2.082444
  C 4.539861 -1.351732 -3.318331
  H 3.457768 -1.367019 -3.357017
  H 6.229438 -0.864336 -2.102777
  H 0.556170 0.487087 1.264449
  H 0.649932 -0.894208 0.167490
  H 0.649553 0.724495 -0.483329
  H 3.902325 1.415132 1.227886
  H 3.902598 -0.206935 1.880042
  H 1.810209 0.289684 3.143094
  H 1.810071 1.930514 2.483482
  H 4.024296 0.718106 4.203524
  H 2.818013 1.882665 4.734941
  H 4.024124 2.355611 3.545218
  H 2.500695 -0.656044 -1.580349
  H 5.152730 -0.074079 -0.132808
  H 4.922340 -2.359013 -3.504410
  H 4.922694 -0.752261 -4.148700
 25
 9.465116
  C 0.973867 0.136367 0.392185
  C 2.433027 0.152400 0.431465
  C 3.204681 0.617036 1.586667
  C 2.428269 1.107080 2.805604
  C 3.387283 1.549721 3.906426
  C 3.161892 -0.359316 -0.841938
  C 4.540929 -0.423018 -1.001819
  C 5.180139 -0.876332 -2.132525
  C 4.579975 -1.373250 -3.372103
  H 3.497371 -1.386629 -3.406069
  H 6.262008 -0.878815 -2.138947
  H 0.515441 0.502515 1.302834
  H 0.619703 -0.879060 0.202601
  H 0.619424 0.737804 -0.447500
  H 3.868732 1.423668 1.251818
  H 3.868971 -0.196710 1.903336
  H 1.792213 0.310594 3.195614
  H 1.792152 1.951821 2.535757
  H 4.023190 0.726693 4.224748
  H 2.831442 1.898168 4.773236
  H 4.023094 2.364086 3.566384
  H 2.530341 -0.684806 -1.651542
  H 5.161840 -0.093006 -0.179863
  H 4.960914 -2.380435 -3.558876
  H 4.961288 -0.774292 -4.202900
 25
 28.158617
  C 0.896947 0.137502 0.394791
  C 2.345208 0.170068 0.475371
  C 3.172790 0.616062 1.584617
  C 2.443886 1.116943 2.830263
  C 3.446793 1.545851 3.897125
  C 3.149137 -0.393943 -0.928495
  C 4.511140 -0.430189 -1.021233
  C 5.190371 -0.866489 -2.109026
  C 4.637455 -1.368782 -3.360227
  H 3.554870 -1.387497 -3.406836
  H 6.270820 -0.847663 -2.063001
  H 0.425708 0.502119 1.302179
  H 0.551566 -0.879707 0.197886
  H 0.551366 0.735436 -0.451273
  H 3.842908 1.405935 1.222022
  H 3.843060 -0.205026 1.869640
  H 1.810362 0.330688 3.243161
  H 1.810516 1.970337 2.583866
  H 4.081758 0.713948 4.193272
  H 2.926707 1.902070 4.782898
  H 4.081954 2.351020 3.534922
  H 2.493350 -0.710606 -1.715314
  H 5.095626 -0.092811 -0.181665
  H 5.032004 -2.369916 -3.542592
  H 5.031974 -0.771581 -4.184225
 25
 49.373896
  C 0.851198 0.158600 0.446879
  C 2.279720 0.195499 0.538495
  C 3.136357 0.625048 1.607433
  C 2.434233 1.134058 2.873098
  C 3.459124 1.555095 3.920894
  C 3.144805 -0.423552 -1.002619
  C 4.506663 -0.445893 -1.062006
  C 5.233488 -0.883290 -2.152135
  C 4.708094 -1.395700 -3.426166
  H 3.627195 -1.419427 -3.483911
  H 6.307011 -0.850956 -2.073749
  H 0.373921 0.523898 1.356460
  H 0.509798 -0.861780 0.241262
  H 0.509757 0.753232 -0.407404
  H 3.810053 1.407204 1.224780
  H 3.809699 -0.204476 1.872420
  H 1.801064 0.352002 3.295119
  H 1.801624 1.990907 2.636129
  H 4.093394 0.718316 4.204862
  H 2.958398 1.915389 4.816108
  H 4.093837 2.355124 3.546523
  H 2.455895 -0.730013 -1.763299
  H 5.071544 -0.101534 -0.206321
  H 5.108759 -2.397197 -3.602464
  H 5.107921 -0.794587 -4.246679
 25
 69.995849
  C 0.800718 0.175954 0.489960
  C 2.227471 0.217137 0.592275
  C 3.105913 0.639152 1.642683
  C 2.426235 1.150586 2.914356
  C 3.468416 1.565389 3.946678
  C 3.161180 -0.455479 -1.082406
  C 4.515764 -0.468615 -1.118974
  C 5.266753 -0.901928 -2.198893
  C 4.762946 -1.415273 -3.474484
  H 3.681787 -1.441480 -3.537767
  H 6.346035 -0.861285 -2.100334
  H 0.317379 0.538983 1.394150
  H 0.464874 -0.840748 0.277927
  H 0.464830 0.763654 -0.366298
  H 3.777850 1.412686 1.250208
  H 3.777559 -0.191257 1.894594
  H 1.795018 0.370635 3.342249
  H 1.795555 2.010079 2.683071
  H 4.101677 0.724953 4.221834
  H 2.982516 1.928359 4.848593
  H 4.102215 2.361991 3.563400
  H 2.458594 -0.755574 -1.827217
  H 5.064945 -0.121148 -0.255870
  H 5.165402 -2.415615 -3.645665
  H 5.164266 -0.811522 -4.290841
 25
 88.830111
  C 0.759400 0.195164 0.537577
  C 2.178153 0.238799 0.646020
  C 3.074314 0.652555 1.676012
  C 2.413087 1.169807 2.962362
  C 3.472047 1.578711 3.980026
  C 3.177720 -0.488007 -1.163493
  C 4.529115 -0.492747 -1.179254
  C 5.302610 -0.920728 -2.245971
  C 4.818918 -1.439064 -3.533350
  H 3.738026 -1.469422 -3.606298
  H 6.374244 -0.871828 -2.127396
  H 0.269305 0.558544 1.442807
  H 0.426619 -0.824269 0.319665
  H 0.426558 0.780870 -0.324744
  H 3.747449 1.421749 1.270790
  H 3.747031 -0.183533 1.915592
  H 1.783345 0.391912 3.396982
  H 1.783857 2.032399 2.737466
  H 4.104274 0.734724 4.246615
  H 3.000344 1.944344 4.888769
  H 4.104716 2.371982 3.588176
  H 2.457298 -0.782815 -1.895106
  H 5.064143 -0.141612 -0.307315
  H 5.225529 -2.439590 -3.699537
  H 5.224001 -0.831778 -4.346379
 25
 105.004564
  C 0.712026 0.214181 0.584768
  C 2.127415 0.260423 0.699951
  C 3.040453 0.666742 1.711672
  C 2.402996 1.188676 3.009495
  C 3.480258 1.590259 4.008927
  C 3.193518 -0.520283 -1.244105
  C 4.538092 -0.516651 -1.239212
  C 5.336986 -0.939649 -2.293511
  C 4.876826 -1.460911 -3.587315
  H 3.797186 -1.496185 -3.671763
  H 6.408294 -0.882167 -2.154195
  H 0.214099 0.576159 1.486652
  H 0.383978 -0.804629 0.361543
  H 0.384008 0.795950 -0.280884
  H 3.712463 1.429227 1.294797
  H 3.711945 -0.172717 1.938309
  H 1.775673 0.414059 3.451745
  H 1.776220 2.054226 2.792302
  H 4.111000 0.742232 4.265667
  H 3.025159 1.958791 4.924797
  H 4.111501 2.379584 3.607120
  H 2.459782 -0.808908 -1.960258
  H 5.056900 -0.162160 -0.359387
  H 5.288066 -2.459437 -3.747271
  H 5.286175 -0.850832 -4.394787
 25
 118.326922
  C 0.669118 0.234694 0.635796
  C 2.079316 0.281619 0.753133
  C 3.005101 0.681612 1.749304
  C 2.389969 1.208859 3.059778
  C 3.485187 1.603820 4.042563
  C 3.210543 -0.553327 -1.326078
  C 4.550917 -0.542280 -1.302911
  C 5.373150 -0.959644 -2.343566
  C 4.935424 -1.484789 -3.646847
  H 3.856407 -1.525553 -3.744394
  H 6.439060 -0.894173 -2.184843
  H 0.163614 0.596138 1.536307
  H 0.344659 -0.785174 0.408101
  H 0.344917 0.814300 -0.233788
  H 3.676737 1.439002 1.320855
  H 3.675932 -0.162275 1.964305
  H 1.764387 0.436880 3.509917
  H 1.765084 2.077984 2.849862
  H 4.114468 0.751903 4.290196
  H 3.045842 1.975246 4.965241
  H 4.115047 2.389465 3.631316
  H 2.462107 -0.836820 -2.029457
  H 5.055122 -0.184315 -0.414671
  H 5.352481 -2.482638 -3.800926
  H 5.350274 -0.870999 -4.449669
 25
 128.852400
  C 0.624980 0.256468 0.690099
  C 2.033621 0.302398 0.805337
  C 2.967703 0.697882 1.790318
  C 2.376313 1.230003 3.112307
  C 3.488780 1.617939 4.077366
  C 3.230102 -0.586907 -1.408884
  C 4.565310 -0.569500 -1.369900
  C 5.410244 -0.981581 -2.398108
  C 4.994714 -1.508991 -3.707712
  H 3.917545 -1.555203 -3.818657
  H 6.473606 -0.908842 -2.221408
  H 0.111702 0.617120 1.588398
  H 0.304277 -0.763307 0.458508
  H 0.304724 0.833310 -0.182307
  H 3.638071 1.449453 1.351193
  H 3.637016 -0.149301 1.993863
  H 1.753121 0.461482 3.570563
  H 1.753915 2.102269 2.910362
  H 4.116301 0.762191 4.315645
  H 3.065805 1.992142 5.006539
  H 4.116934 2.399719 3.656504
  H 2.470733 -0.865206 -2.099571
  H 5.055157 -0.208739 -0.474434
  H 5.417221 -2.504744 -3.855829
  H 5.414913 -0.892227 -4.504606
 25
 136.111489
  C 0.588898 0.280992 0.751382
  C 1.996184 0.322650 0.856149
  C 2.926129 0.718257 1.841385
  C 2.353772 1.254534 3.173293
  C 3.479934 1.637376 4.125414
  C 3.260723 -0.620330 -1.491826
  C 4.596610 -0.601309 -1.448644
  C 5.453208 -1.011035 -2.471319
  C 5.048698 -1.537572 -3.779410
  H 3.971512 -1.586954 -3.898524
  H 6.514970 -0.935846 -2.288214
  H 0.067400 0.640861 1.647617
  H 0.272289 -0.738895 0.516682
  H 0.272801 0.855743 -0.123357
  H 3.595508 1.465605 1.394607
  H 3.594330 -0.131221 2.036710
  H 1.732223 0.488481 3.638646
  H 1.733048 2.129912 2.977969
  H 4.106128 0.778509 4.356473
  H 3.069851 2.013842 5.059922
  H 4.106751 2.416317 3.697009
  H 2.496394 -0.897553 -2.180181
  H 5.080015 -0.238938 -0.548708
  H 5.474892 -2.532339 -3.923838
  H 5.472729 -0.918816 -4.572740
 25
 140.895468
  C 0.553289 0.306350 0.814720
  C 1.965145 0.343946 0.909303
  C 2.890632 0.742297 1.901177
  C 2.329267 1.279802 3.236126
  C 3.461813 1.659446 4.180134
  C 3.300005 -0.652368 -1.571340
  C 4.635453 -0.634006 -1.529575
  C 5.497121 -1.043406 -2.551666
  C 5.096039 -1.569337 -3.858988
  H 4.019435 -1.620401 -3.982752
  H 6.559949 -0.967919 -2.367386
  H 0.027030 0.665151 1.708197
  H 0.239048 -0.714276 0.578407
  H 0.239481 0.880414 -0.061750
  H 3.559890 1.488089 1.450597
  H 3.558695 -0.108608 2.092746
  H 1.708823 0.515145 3.704880
  H 1.709572 2.156443 3.044205
  H 4.087097 0.798926 4.407071
  H 3.058871 2.036906 5.117143
  H 4.087640 2.436773 3.747569
  H 2.537482 -0.929998 -2.260978
  H 5.116089 -0.270989 -0.627550
  H 5.524801 -2.563364 -4.001745
  H 5.522897 -0.949834 -4.650351
 25
 144.213863
  C 0.526130 0.333502 0.882500
  C 1.938471 0.366109 0.964640
  C 2.856655 0.766893 1.962296
  C 2.299824 1.304832 3.298363
  C 3.435564 1.683451 4.239623
  C 3.341754 -0.683943 -1.649531
  C 4.682125 -0.668002 -1.613570
  C 5.541505 -1.077666 -2.636638
  C 5.138358 -1.601489 -3.939642
  H 4.061548 -1.652602 -4.064041
  H 6.604993 -1.003746 -2.455800
  H -0.000691 0.692190 1.775404
  H 0.212453 -0.686978 0.646434
  H 0.212892 0.907449 0.006173
  H 3.525587 1.511819 1.510178
  H 3.524491 -0.084387 2.152187
  H 1.679471 0.540351 3.768395
  H 1.680081 2.182145 3.107493
  H 4.060596 0.822118 4.464883
  H 3.035439 2.061412 5.177952
  H 4.061018 2.460281 3.805254
  H 2.581250 -0.963224 -2.343595
  H 5.164129 -0.305181 -0.711437
  H 5.568243 -2.595062 -4.082438
  H 5.566619 -0.982134 -4.730421
 25
 146.457339
  C 0.498291 0.360587 0.950057
  C 1.915090 0.389127 1.022150
  C 2.826771 0.793542 2.028728
  C 2.269282 1.331294 3.364109
  C 3.404034 1.710042 4.305607
  C 3.389171 -0.714142 -1.724480
  C 4.730956 -0.701671 -1.697141
  C 5.585052 -1.112938 -2.724426
  C 5.175797 -1.635687 -4.025193
  H 4.098679 -1.686093 -4.148065
  H 6.650712 -1.041428 -2.549400
  H -0.028710 0.719323 1.842982
  H 0.184505 -0.660305 0.714274
  H 0.184958 0.934985 0.073636
  H 3.496095 1.538696 1.577055
  H 3.494929 -0.057606 2.219232
  H 1.648707 0.566689 3.833448
  H 1.649340 2.208210 3.172558
  H 4.028940 0.848842 4.531084
  H 3.003389 2.087923 5.243606
  H 4.029387 2.486877 3.871422
  H 2.634243 -0.995764 -2.424593
  H 5.216209 -0.339485 -0.796281
  H 5.606098 -2.629262 -4.169215
  H 5.604604 -1.017096 -4.816705
 25
 147.920669
  C 0.476015 0.389282 1.021484
  C 1.892875 0.413587 1.083167
  C 2.796130 0.820638 2.096221
  C 2.235284 1.357612 3.429495
  C 3.367665 1.737448 4.373704
  C 3.435770 -0.743355 -1.796802
  C 4.783241 -0.735388 -1.780953
  C 5.627298 -1.148449 -2.812969
  C 5.208899 -1.668812 -4.107942
  H 4.131242 -1.717364 -4.226148
  H 6.694498 -1.080374 -2.646607
  H -0.048642 0.748253 1.914822
  H 0.161443 -0.631244 0.786731
  H 0.161958 0.964099 0.145993
  H 3.465690 1.566176 1.645970
  H 3.464484 -0.029855 2.288157
  H 1.613997 0.592246 3.897146
  H 1.614672 2.233915 3.236137
  H 3.992829 0.876629 4.600546
  H 2.964484 2.115043 5.310909
  H 3.993308 2.514877 3.940763
  H 2.686073 -1.027792 -2.503972
  H 5.274641 -0.374277 -0.882826
  H 5.638268 -2.662414 -4.254216
  H 5.636762 -1.051673 -4.901063
