 23
 0.000000
  H 1.438339 0.162966 0.460249
  C 2.517230 0.147634 0.420372
  C 3.268761 0.619537 1.591745
  C 2.402760 1.086571 2.754173
  H 3.022205 1.419085 3.579489
  C 3.084202 -0.322555 -0.749504
  C 4.460766 -0.415622 -0.982205
  C 5.129099 -0.871337 -2.119220
  C 4.610554 -1.389288 -3.412216
  C 3.117253 -1.495492 -3.678999
  H 2.963950 -1.894701 -4.675556
  O 6.445056 -0.871401 -2.119261
  H 3.928761 1.439895 1.285751
  H 3.930041 -0.183182 1.938871
  H 1.763991 0.279773 3.107358
  H 1.762768 1.912369 2.450526
  H 2.404034 -0.633759 -1.523248
  H 5.099477 -0.089282 -0.169346
  H 5.065437 -2.377784 -3.544200
  H 5.066254 -0.765954 -4.190228
  H 2.639736 -0.519893 -3.633281
  H 2.638935 -2.169251 -2.972465
  H 6.850943 -0.541746 -1.294378
 23
 14.622319
  H 1.422129 0.181613 0.506508
  C 2.501653 0.163534 0.459836
  C 3.249433 0.635611 1.631664
  C 2.372767 1.099790 2.787174
  H 2.985876 1.434552 3.618205
  C 3.061262 -0.307951 -0.713224
  C 4.428913 -0.400125 -0.943547
  C 5.138210 -0.901991 -2.195623
  C 4.618423 -1.410223 -3.464329
  C 3.121176 -1.506482 -3.706395
  H 2.952097 -1.905300 -4.701963
  O 6.585865 -0.898833 -2.187593
  H 3.910131 1.456847 1.329229
  H 3.911425 -0.165271 1.981922
  H 1.734307 0.291623 3.136471
  H 1.733076 1.923895 2.479859
  H 2.378244 -0.618833 -1.486230
  H 5.081146 -0.079178 -0.144097
  H 5.070596 -2.400762 -3.601728
  H 5.071496 -0.789231 -4.247699
  H 2.649837 -0.528777 -3.654629
  H 2.648993 -2.177552 -2.994032
  H 6.972300 -0.568231 -1.360417
 23
 45.178758
  H 1.435784 0.193832 0.535278
  C 2.514940 0.172693 0.481139
  C 3.248632 0.644812 1.654489
  C 2.347966 1.101949 2.793524
  H 2.942587 1.441477 3.637605
  C 3.061114 -0.293389 -0.679058
  C 4.410732 -0.377081 -0.887762
  C 5.114947 -0.928632 -2.262770
  C 4.612454 -1.430214 -3.513880
  C 3.108970 -1.513380 -3.722728
  H 2.920993 -1.911654 -4.716201
  O 6.705282 -0.904244 -2.200818
  H 3.910779 1.468050 1.361875
  H 3.911860 -0.151129 2.012704
  H 1.708401 0.289849 3.130424
  H 1.707271 1.920611 2.475131
  H 2.380843 -0.603942 -1.451327
  H 5.107291 -0.072252 -0.128666
  H 5.065960 -2.422789 -3.653888
  H 5.066809 -0.809950 -4.300829
  H 2.646543 -0.532485 -3.667124
  H 2.645779 -2.183774 -3.004989
  H 6.999038 -0.563983 -1.349070
 23
 80.507478
  H 1.423402 0.202524 0.559592
  C 2.499678 0.183586 0.508855
  C 3.223497 0.659891 1.691412
  C 2.309862 1.114155 2.824673
  H 2.892893 1.453989 3.668218
  C 3.061882 -0.286991 -0.663078
  C 4.415774 -0.364383 -0.857781
  C 5.092763 -0.957970 -2.335572
  C 4.609859 -1.446251 -3.552567
  C 3.092431 -1.518655 -3.737568
  H 2.883521 -1.913578 -4.721685
  O 6.852941 -0.929150 -2.261291
  H 3.887114 1.484650 1.404332
  H 3.889398 -0.132493 2.054402
  H 1.671696 0.298658 3.159565
  H 1.669414 1.933065 2.502615
  H 2.392181 -0.599512 -1.437929
  H 5.162429 -0.076102 -0.142326
  H 5.070262 -2.444597 -3.700375
  H 5.072254 -0.828479 -4.349539
  H 2.640329 -0.532327 -3.670121
  H 2.638201 -2.183388 -3.007201
  H 7.083302 -0.575837 -1.377367
 23
 100.884166
  H 1.379289 0.228425 0.590264
  C 2.456311 0.143304 0.495330
  C 3.249005 0.615597 1.628445
  C 2.424564 1.164747 2.777495
  H 3.072568 1.490906 3.590347
  C 2.934952 -0.371926 -0.677222
  C 4.307761 -0.525828 -0.934280
  C 4.782468 -0.922642 -2.149496
  C 4.513282 -1.362272 -3.466669
  C 3.039701 -1.572202 -3.823259
  H 2.990121 -1.913552 -4.852343
  O 7.161308 -0.736088 -2.027881
  H 3.960900 1.375892 1.287933
  H 3.887243 -0.199549 1.990327
  H 1.747010 0.409632 3.166865
  H 1.831042 2.016824 2.457233
  H 2.222294 -0.643830 -1.436933
  H 5.060758 -0.305161 -0.199997
  H 5.084676 -2.291817 -3.628248
  H 4.986917 -0.652863 -4.165533
  H 2.487472 -0.642509 -3.742231
  H 2.587685 -2.323402 -3.183914
  H 7.310576 -0.429446 -1.108474
 23
 109.957816
  H 1.335069 0.230802 0.646006
  C 2.402376 0.157147 0.509611
  C 3.238148 0.624742 1.615812
  C 2.456322 1.161529 2.802549
  H 3.130071 1.479192 3.586619
  C 2.832036 -0.353994 -0.675075
  C 4.223487 -0.519015 -0.993605
  C 4.662638 -0.910551 -2.156433
  C 4.512497 -1.357907 -3.469364
  C 3.038264 -1.591441 -3.872852
  H 3.033793 -1.961506 -4.891847
  O 7.359747 -0.724686 -1.967901
  H 3.939223 1.390377 1.254003
  H 3.893410 -0.195839 1.946414
  H 1.793619 0.400651 3.211079
  H 1.849173 2.017524 2.513784
  H 2.102541 -0.645335 -1.405810
  H 4.969783 -0.288014 -0.239078
  H 5.083760 -2.294381 -3.572579
  H 5.004877 -0.651096 -4.150042
  H 2.477696 -0.655287 -3.834421
  H 2.565961 -2.326539 -3.221787
  H 7.544362 -0.430688 -1.069581
 23
 109.712797
  H 1.275984 0.253574 0.717257
  C 2.337922 0.185293 0.532773
  C 3.230107 0.630765 1.607531
  C 2.504576 1.145851 2.831259
  H 3.215106 1.450979 3.592130
  C 2.708291 -0.310670 -0.667120
  C 4.096151 -0.489589 -1.051984
  C 4.525518 -0.897127 -2.178248
  C 4.538007 -1.372843 -3.478581
  C 3.062483 -1.615656 -3.913916
  H 3.102658 -2.017036 -4.917195
  O 7.508960 -0.724922 -1.900782
  H 3.901271 1.407868 1.229464
  H 3.886594 -0.196611 1.898490
  H 1.860928 0.379202 3.252538
  H 1.885249 2.003132 2.582381
  H 1.963069 -0.608997 -1.376223
  H 4.840081 -0.250251 -0.297004
  H 5.086441 -2.320519 -3.538364
  H 5.023366 -0.666430 -4.160331
  H 2.510211 -0.685712 -3.924051
  H 2.576376 -2.331637 -3.263568
  H 7.792491 -0.420730 -1.033426
 23
 107.457436
  H 1.207222 0.294352 0.834920
  C 2.260115 0.212399 0.584871
  C 3.223461 0.638042 1.618954
  C 2.569764 1.146014 2.885045
  H 3.324430 1.438379 3.613320
  C 2.567282 -0.279476 -0.636943
  C 3.918936 -0.464254 -1.102923
  C 4.345123 -0.902861 -2.231409
  C 4.587192 -1.396898 -3.493065
  C 3.127967 -1.650841 -4.001735
  H 3.228640 -2.075131 -4.991908
  O 7.569890 -0.733602 -1.860266
  H 3.875624 1.418134 1.213391
  H 3.882288 -0.198837 1.867759
  H 1.945346 0.380721 3.332740
  H 1.945055 2.009641 2.679009
  H 1.786724 -0.583992 -1.325496
  H 4.697126 -0.199990 -0.376340
  H 5.147076 -2.337098 -3.480159
  H 5.106100 -0.682928 -4.145694
  H 2.577396 -0.733664 -4.066439
  H 2.608047 -2.349247 -3.368517
  H 7.947996 -0.423912 -1.033392
 23
 105.339303
  H 1.185141 0.288688 0.874774
  C 2.226791 0.191895 0.600440
  C 3.214837 0.629127 1.606521
  C 2.583501 1.162562 2.882954
  H 3.350531 1.464101 3.591134
  C 2.505759 -0.311357 -0.620072
  C 3.843330 -0.496186 -1.120762
  C 4.305368 -0.924736 -2.237794
  C 4.680236 -1.398330 -3.478850
  C 3.197065 -1.611983 -3.956271
  H 3.282907 -2.024734 -4.958834
  O 7.334036 -0.743655 -1.882878
  H 3.862009 1.401703 1.174366
  H 3.877900 -0.208296 1.855759
  H 1.963496 0.404309 3.356424
  H 1.956034 2.026497 2.674292
  H 1.706234 -0.599713 -1.284317
  H 4.661133 -0.227685 -0.444128
  H 5.235168 -2.336745 -3.460203
  H 5.201945 -0.673187 -4.104235
  H 2.649192 -0.676193 -4.012769
  H 2.665337 -2.327000 -3.335141
  H 7.960856 -0.484132 -1.204685
