9

C -3.5074 0.983922 -0.130961
C -2.066376 0.586476 -0.028277
C -1.651863 -0.475354 0.642335
H -1.246336666402648 -0.610262441168212 0.6882012104717322
H -4.108615 0.162174 -0.515986
H -3.629554 1.843306 -0.784439
H -3.901384 1.242993 0.851519
H -1.361518 1.223916 -0.537547
H -2.384408 -1.09925 1.143229
