19
 0
 C -3.24523938 -1.82274755 0.09559452
 C -1.74993218 -1.63412813 -0.12921805
 C -1.36164555 -2.12861870 -1.52164761
 C -1.21580921 -0.21437978 0.06786578
 C -2.14729930 0.94378991 0.31879003
 O 0.00000000 0.00000000 0.00000000
 H -3.51988070 -2.87904260 0.00070260
 H -3.83693923 -1.26004035 -0.63460973
 H -3.53734162 -1.49714230 1.09945080
 H -1.23156308 -2.24987084 0.61752907
 H -1.82870814 -1.51845308 -2.30247503
 H -1.67065964 -3.16910385 -1.66794051
 H -0.27736468 -2.08027622 -1.67014405
 H -3.18905966 0.64759227 0.42677383
 H -2.07558951 1.64403067 -0.51773853
 H -1.84404230 1.44174569 1.24437927
 O 2.70000000 0.00000000 0.00000000
 H 3.38474093 0.23913281 0.64258244
 H 3.18881206 -0.44606170 -0.70784698
