 23
 0.000000
  C 0.926836 0.049517 0.297844
  C 2.413437 0.058026 0.060240
  C 3.235426 -0.013518 1.327507
  H 2.588132 -0.067011 2.199652
  C 3.003924 0.127671 -1.146380
  C 2.357972 0.205544 -2.515704
  C 0.843904 0.213171 -2.692343
  H 0.628101 0.274207 -3.759448
  C 4.461579 0.132724 -1.228277
  C 5.207133 0.196369 -2.330773
  O 6.566195 0.197412 -2.336328
  H 0.713228 -0.014506 1.362360
  H 0.450856 -0.801235 -0.183082
  H 0.462923 0.958952 -0.075444
  H 3.869093 0.866400 1.438753
  H 3.875524 -0.895733 1.335786
  H 2.748665 -0.641344 -3.089293
  H 2.746197 1.113765 -2.988308
  H 0.383897 1.071461 -2.213714
  H 0.387267 -0.696198 -2.315550
  H 5.001544 0.079491 -0.293318
  H 4.832228 0.254186 -3.339063
  H 6.894733 0.145432 -1.429223
 23
 4.119023
  C 0.936655 0.029714 0.310759
  C 2.398157 0.055670 0.069425
  C 3.235636 -0.022145 1.334226
  H 2.598315 -0.055035 2.211812
  C 2.989878 0.126348 -1.140952
  C 2.344630 0.204363 -2.514082
  C 0.830588 0.201325 -2.704145
  H 0.624208 0.263036 -3.772046
  C 4.447258 0.140526 -1.221073
  C 5.195081 0.208384 -2.323003
  O 6.553362 0.212712 -2.325375
  H 0.687914 0.001388 1.363256
  H 0.418205 -0.778082 -0.188309
  H 0.693258 0.968351 -0.110191
  H 3.888316 0.843663 1.434506
  H 3.855048 -0.917868 1.343650
  H 2.742893 -0.638899 -3.087967
  H 2.729510 1.116474 -2.982642
  H 0.355530 1.053843 -2.230224
  H 0.378772 -0.713119 -2.335814
  H 4.985645 0.087488 -0.285152
  H 4.822601 0.265862 -3.331897
  H 6.878840 0.160362 -1.417570
 23
 11.738247
  C 0.929070 0.043601 0.291268
  C 2.393083 0.047675 0.067496
  C 3.211122 -0.047568 1.335415
  H 2.560508 -0.046838 2.203021
  C 2.991720 0.120613 -1.137132
  C 2.336441 0.201105 -2.499463
  C 0.823531 0.160337 -2.668458
  H 0.602123 0.229327 -3.730088
  C 4.456310 0.149189 -1.226334
  C 5.196240 0.230510 -2.328437
  O 6.568931 0.243341 -2.337550
  H 0.649225 0.043011 1.319859
  H 0.371906 -0.685440 -0.253585
  H 0.923475 1.020140 -0.146980
  H 3.896077 0.790822 1.439112
  H 3.790711 -0.970028 1.358704
  H 2.745874 -0.625796 -3.085230
  H 2.694858 1.125547 -2.961132
  H 0.328354 0.991362 -2.175806
  H 0.403629 -0.774684 -2.307032
  H 5.000379 0.089279 -0.298778
  H 4.817235 0.295447 -3.336882
  H 6.903983 0.183633 -1.421376
 23
 21.664036
  C 0.902410 0.047130 0.298323
  C 2.388878 0.044575 0.067364
  C 3.207564 -0.049858 1.335658
  H 2.554861 -0.031345 2.207097
  C 2.992198 0.118120 -1.136704
  C 2.339067 0.203503 -2.498177
  C 0.826834 0.137884 -2.666841
  H 0.602859 0.218459 -3.729080
  C 4.454643 0.148127 -1.222627
  C 5.196637 0.241583 -2.328248
  O 6.558465 0.255262 -2.337348
  H 0.614144 0.056382 1.328701
  H 0.312723 -0.631344 -0.280170
  H 1.085995 1.011532 -0.131667
  H 3.909103 0.778048 1.432676
  H 3.770983 -0.984104 1.363432
  H 2.762333 -0.609800 -3.093704
  H 2.683230 1.139124 -2.949606
  H 0.314982 0.951736 -2.160149
  H 0.426331 -0.812513 -2.319463
  H 4.997869 0.077622 -0.295103
  H 4.818719 0.318210 -3.334492
  H 6.881680 0.186025 -1.446645
 23
 31.998999
  C 0.895683 0.042872 0.320665
  C 2.380667 0.044754 0.065819
  C 3.219570 -0.045925 1.327465
  H 2.585989 -0.009957 2.205947
  C 2.983694 0.115669 -1.143072
  C 2.331310 0.204306 -2.512532
  C 0.818190 0.122410 -2.687122
  H 0.595640 0.211915 -3.748944
  C 4.440008 0.147666 -1.217370
  C 5.189903 0.250655 -2.316774
  O 6.552733 0.261058 -2.315794
  H 0.604672 0.047038 1.356859
  H 0.269597 -0.588814 -0.280330
  H 1.217969 1.001823 -0.096977
  H 3.935105 0.769998 1.404340
  H 3.767570 -0.984919 1.354361
  H 2.766165 -0.599057 -3.114776
  H 2.666465 1.148104 -2.957213
  H 0.295425 0.923304 -2.173041
  H 0.430596 -0.834175 -2.353297
  H 4.977153 0.067876 -0.282349
  H 4.819391 0.337830 -3.323768
  H 6.874535 0.179377 -1.408527
 23
 40.654326
  C 0.889679 0.027893 0.327549
  C 2.373738 0.048977 0.062879
  C 3.197585 -0.031875 1.338376
  H 2.550670 0.005600 2.210044
  C 2.992120 0.115957 -1.144424
  C 2.346506 0.205844 -2.511597
  C 0.832629 0.115874 -2.684509
  H 0.606362 0.210581 -3.745110
  C 4.435823 0.143837 -1.221693
  C 5.178141 0.255515 -2.330487
  O 6.537060 0.260263 -2.340543
  H 0.611617 0.023042 1.356522
  H 0.252554 -0.556776 -0.303031
  H 1.312046 0.975889 -0.058011
  H 3.914307 0.789045 1.423813
  H 3.744559 -0.975472 1.373476
  H 2.787965 -0.593418 -3.119301
  H 2.677363 1.154920 -2.953524
  H 0.306458 0.912499 -2.163102
  H 0.452532 -0.848518 -2.355701
  H 4.982604 0.051837 -0.290009
  H 4.798207 0.355870 -3.334741
  H 6.864576 0.165975 -1.436166
 23
 47.020583
  C 0.883490 0.011501 0.343611
  C 2.365919 0.051900 0.058103
  C 3.190569 -0.014779 1.326341
  H 2.555620 0.027846 2.193337
  C 2.986876 0.113478 -1.149151
  C 2.337235 0.204868 -2.522193
  C 0.823746 0.109055 -2.691088
  H 0.592422 0.209863 -3.747976
  C 4.448128 0.139385 -1.222184
  C 5.193182 0.258900 -2.323484
  O 6.556660 0.257830 -2.328433
  H 0.617135 -0.023741 1.384860
  H 0.224723 -0.516773 -0.318043
  H 1.384499 0.962181 -0.001185
  H 3.900987 0.801099 1.400388
  H 3.733518 -0.949019 1.365384
  H 2.780594 -0.588219 -3.133681
  H 2.661290 1.157296 -2.960825
  H 0.298755 0.897775 -2.163600
  H 0.451832 -0.854253 -2.369623
  H 4.995435 0.034386 -0.287780
  H 4.819831 0.371408 -3.321688
  H 6.878784 0.151174 -1.426515
 23
 51.773042
  C 0.879001 -0.003050 0.347517
  C 2.360027 0.056134 0.051229
  C 3.194639 -0.001686 1.323423
  H 2.559613 0.049018 2.203648
  C 2.985184 0.112273 -1.160017
  C 2.340139 0.202069 -2.526680
  C 0.831014 0.105038 -2.691838
  H 0.596039 0.208652 -3.750203
  C 4.439651 0.137366 -1.224933
  C 5.194569 0.262658 -2.323787
  O 6.547366 0.257546 -2.317251
  H 0.617759 -0.072234 1.386214
  H 0.207045 -0.471673 -0.337605
  H 1.445756 0.954523 0.043021
  H 3.907287 0.812713 1.385572
  H 3.739218 -0.940358 1.366076
  H 2.782555 -0.586694 -3.136303
  H 2.659595 1.151416 -2.962755
  H 0.307719 0.893788 -2.159933
  H 0.460197 -0.863032 -2.370102
  H 4.974382 0.025133 -0.300054
  H 4.827953 0.384005 -3.329143
  H 6.861786 0.141804 -1.407381
 23
 55.508750
  C 0.878701 -0.019430 0.364465
  C 2.359329 0.061012 0.055193
  C 3.200156 0.010949 1.320816
  H 2.568482 0.066424 2.205431
  C 2.984675 0.110476 -1.162665
  C 2.339151 0.199217 -2.537488
  C 0.821752 0.104668 -2.707717
  H 0.588757 0.209241 -3.769124
  C 4.429916 0.134637 -1.220946
  C 5.187566 0.265473 -2.312538
  O 6.571042 0.256594 -2.301888
  H 0.626351 -0.117624 1.391855
  H 0.189952 -0.435423 -0.339306
  H 1.494683 0.942486 0.090468
  H 3.913448 0.828761 1.372338
  H 3.747777 -0.929588 1.365711
  H 2.785823 -0.597082 -3.150430
  H 2.662764 1.153935 -2.977613
  H 0.298309 0.897194 -2.177016
  H 0.445453 -0.867932 -2.385447
  H 4.968002 0.014581 -0.282116
  H 4.821475 0.396220 -3.321219
  H 6.880399 0.134068 -1.405033
 23
 58.567267
  C 0.873647 -0.040922 0.368015
  C 2.357025 0.066629 0.058795
  C 3.187896 0.024513 1.324815
  H 2.554006 0.080269 2.197864
  C 2.990494 0.109628 -1.161150
  C 2.350031 0.198495 -2.533751
  C 0.850375 0.106962 -2.703689
  H 0.621704 0.211974 -3.756652
  C 4.426075 0.132149 -1.223951
  C 5.179119 0.266441 -2.324704
  O 6.551860 0.252138 -2.325499
  H 0.616849 -0.158483 1.402054
  H 0.179564 -0.415891 -0.354616
  H 1.529237 0.932089 0.117233
  H 3.897747 0.849348 1.376759
  H 3.739298 -0.914322 1.378354
  H 2.792458 -0.588394 -3.140859
  H 2.672023 1.143578 -2.972151
  H 0.330217 0.900051 -2.174454
  H 0.474492 -0.863017 -2.383852
  H 4.961012 0.006274 -0.305079
  H 4.807888 0.402829 -3.321648
  H 6.869059 0.121831 -1.425466
 23
 61.462797
  C 0.884576 -0.061265 0.355079
  C 2.362083 0.074025 0.060385
  C 3.182261 0.036486 1.337406
  H 2.536646 0.092297 2.206196
  C 3.004411 0.110437 -1.157340
  C 2.349332 0.199766 -2.542551
  C 0.834243 0.109330 -2.695594
  H 0.589553 0.214522 -3.750450
  C 4.445486 0.132144 -1.221843
  C 5.195667 0.267102 -2.324461
  O 6.563445 0.247953 -2.328667
  H 0.618490 -0.187124 1.380284
  H 0.192287 -0.399165 -0.390334
  H 1.567619 0.921194 0.128725
  H 3.881164 0.859183 1.393944
  H 3.736533 -0.898985 1.401480
  H 2.787609 -0.592702 -3.157565
  H 2.669111 1.148269 -2.989334
  H 0.322631 0.905099 -2.159807
  H 0.458779 -0.864877 -2.367661
  H 4.985548 -0.000933 -0.303881
  H 4.821323 0.407167 -3.320505
  H 6.882194 0.113350 -1.427423
 23
 63.678750
  C 0.881183 -0.087796 0.377516
  C 2.354449 0.078672 0.058808
  C 3.199224 0.047309 1.318596
  H 2.566557 0.103563 2.205033
  C 2.986896 0.109074 -1.172175
  C 2.344498 0.198014 -2.541014
  C 0.843892 0.116004 -2.710838
  H 0.613301 0.223454 -3.771443
  C 4.428195 0.132509 -1.226018
  C 5.191289 0.266797 -2.317157
  O 6.561898 0.243110 -2.301077
  H 0.627778 -0.214893 1.405206
  H 0.171607 -0.394752 -0.362948
  H 1.581621 0.909808 0.147348
  H 3.899476 0.876143 1.357339
  H 3.758060 -0.883330 1.372584
  H 2.780441 -0.591436 -3.145726
  H 2.668979 1.138919 -2.980936
  H 0.330346 0.913201 -2.181509
  H 0.462117 -0.850594 -2.390411
  H 4.966633 -0.003840 -0.285591
  H 4.831424 0.406699 -3.321702
  H 6.865919 0.107854 -1.397457
 23
 65.646816
  C 0.876104 -0.112223 0.371000
  C 2.356888 0.085723 0.058980
  C 3.206722 0.055739 1.329419
  H 2.576857 0.114422 2.209806
  C 2.992663 0.109152 -1.172665
  C 2.347769 0.198687 -2.542688
  C 0.834632 0.120313 -2.708978
  H 0.601704 0.228280 -3.761795
  C 4.436375 0.135692 -1.224538
  C 5.202472 0.267909 -2.315745
  O 6.570623 0.237630 -2.296973
  H 0.613982 -0.236408 1.393646
  H 0.168545 -0.393537 -0.377392
  H 1.602268 0.911060 0.145838
  H 3.910238 0.886280 1.367186
  H 3.766643 -0.877511 1.387407
  H 2.784125 -0.598338 -3.151874
  H 2.678008 1.148237 -2.988797
  H 0.324372 0.917482 -2.178356
  H 0.450374 -0.843234 -2.388935
  H 4.966978 0.003028 -0.296775
  H 4.844725 0.403881 -3.324306
  H 6.871962 0.102776 -1.391718
 23
 67.543567
  C 0.880823 -0.138769 0.364572
  C 2.360989 0.094492 0.061452
  C 3.201475 0.063489 1.335080
  H 2.562049 0.122777 2.214463
  C 3.002056 0.110247 -1.173968
  C 2.354925 0.198139 -2.542949
  C 0.844527 0.128546 -2.702801
  H 0.606230 0.235749 -3.761439
  C 4.438428 0.134147 -1.228300
  C 5.200866 0.265154 -2.322995
  O 6.569687 0.239167 -2.308067
  H 0.605214 -0.251331 1.395577
  H 0.179755 -0.393808 -0.386535
  H 1.624632 0.912073 0.143444
  H 3.898597 0.888957 1.377176
  H 3.758306 -0.865060 1.397566
  H 2.782760 -0.601317 -3.148965
  H 2.687606 1.141047 -2.992973
  H 0.342952 0.928706 -2.173162
  H 0.456869 -0.829243 -2.378658
  H 4.977599 0.003369 -0.292838
  H 4.838743 0.404008 -3.332026
  H 6.874041 0.105357 -1.403598
