 20
 0.000000
  H 1.493632 0.143481 0.408128
  C 2.573582 0.136763 0.391263
  C 3.276121 0.617349 1.586979
  C 2.352982 1.068808 2.710708
  H 2.930711 1.410841 3.562138
  C 3.175598 -0.324293 -0.756750
  C 4.554672 -0.405167 -0.957721
  C 5.191562 -0.867964 -2.111890
  C 4.541839 -1.360116 -3.339365
  H 3.462524 -1.349988 -3.314882
  O 6.499408 -0.891540 -2.171381
  H 3.939410 1.445859 1.308073
  H 3.939534 -0.173666 1.958883
  H 1.713503 0.252382 3.037541
  H 1.713515 1.884417 2.381887
  H 2.523951 -0.644897 -1.555494
  H 5.193479 -0.080091 -0.146804
  H 4.896346 -2.373017 -3.536180
  H 4.896812 -0.764011 -4.181446
  H 6.956703 -0.570769 -1.372138
 20
 -0.514606
  H 1.520603 0.254817 0.355785
  C 2.600986 0.209390 0.349770
  C 3.280118 0.642660 1.577354
  C 2.325978 1.029109 2.698414
  H 2.880210 1.351345 3.575490
  C 3.210484 -0.243712 -0.799084
  C 4.592405 -0.376964 -0.959969
  C 5.219785 -0.914432 -2.087008
  C 4.516271 -1.407665 -3.286527
  H 3.500748 -1.722404 -3.080813
  O 6.518326 -1.020217 -2.146767
  H 3.930464 1.495002 1.343139
  H 3.957057 -0.145403 1.926421
  H 1.702297 0.185273 2.983971
  H 1.674446 1.843788 2.391472
  H 2.567132 -0.527965 -1.618115
  H 5.227930 -0.060281 -0.144076
  H 5.084499 -2.222585 -3.729301
  H 4.486400 -0.608676 -4.029991
  H 7.007593 -0.672242 -1.376274
 20
 1.530297
  H 1.553297 0.502010 0.227640
  C 2.633208 0.434373 0.241183
  C 3.290589 0.698538 1.532211
  C 2.322746 0.778435 2.705560
  H 2.856286 1.014060 3.623917
  C 3.264186 0.093810 -0.928699
  C 4.647003 -0.071694 -1.088142
  C 5.219849 -0.910720 -2.046307
  C 4.462452 -1.580361 -3.123825
  H 3.487409 -1.915726 -2.799602
  O 6.488696 -1.211309 -2.011617
  H 3.823050 1.655339 1.443401
  H 4.064278 -0.045725 1.737503
  H 1.811041 -0.171343 2.847053
  H 1.572416 1.547486 2.542377
  H 2.631689 -0.136988 -1.773170
  H 5.302983 0.391147 -0.367614
  H 5.039690 -2.417276 -3.507941
  H 4.316984 -0.875809 -3.938236
  H 7.028730 -0.705725 -1.372671
 20
 11.526416
  H 1.530155 0.443409 0.260752
  C 2.609015 0.468674 0.190163
  C 3.343365 0.688357 1.450597
  C 2.458965 0.607643 2.686097
  H 3.035288 0.828635 3.580321
  C 3.175373 0.236454 -1.025620
  C 4.564614 0.241129 -1.311038
  C 5.104337 -0.883003 -1.939251
  C 4.487449 -1.631037 -3.051425
  H 3.408581 -1.714169 -2.966623
  O 6.289822 -1.316540 -1.607818
  H 3.793514 1.688438 1.397320
  H 4.176698 -0.011169 1.545787
  H 2.037528 -0.389292 2.795287
  H 1.641132 1.321543 2.626862
  H 2.503541 0.050709 -1.855866
  H 5.208969 0.882295 -0.723006
  H 4.937338 -2.618176 -3.126648
  H 4.707785 -1.087120 -3.972566
  H 6.811509 -0.737631 -1.016821
 20
 34.959111
  H 1.582887 0.474899 0.183855
  C 2.655183 0.529952 0.074850
  C 3.441235 0.649481 1.327335
  C 2.620482 0.356772 2.580100
  H 3.225337 0.506065 3.470661
  C 3.180587 0.416001 -1.164889
  C 4.569032 0.563848 -1.585538
  C 4.865647 -0.762015 -1.795518
  C 4.439851 -1.669838 -2.846887
  H 3.370441 -1.667982 -3.019308
  O 5.883658 -1.251776 -1.142162
  H 3.820076 1.674297 1.387873
  H 4.325455 -0.001956 1.289667
  H 2.262231 -0.669579 2.584012
  H 1.763688 1.027637 2.643892
  H 2.478694 0.341330 -1.996869
  H 5.215121 1.285400 -1.120360
  H 4.769903 -2.671923 -2.606901
  H 4.930208 -1.345588 -3.764684
  H 6.381454 -0.625390 -0.584756
 20
 53.538018
  H 1.693149 0.691096 0.113471
  C 2.759427 0.571778 0.008824
  C 3.536328 0.525982 1.261015
  C 2.684895 0.140040 2.467642
  H 3.295243 0.127664 3.368976
  C 3.261865 0.501692 -1.253501
  C 4.615314 0.791035 -1.777973
  C 4.667603 -0.604448 -1.709341
  C 4.375275 -1.693967 -2.675786
  H 3.347345 -1.683082 -3.037531
  O 5.556405 -1.064328 -0.819732
  H 3.959160 1.524296 1.432853
  H 4.387401 -0.158044 1.173024
  H 2.257080 -0.853175 2.342862
  H 1.872563 0.848876 2.610902
  H 2.549294 0.509007 -2.077008
  H 5.275067 1.604551 -1.518420
  H 4.583303 -2.646339 -2.202510
  H 5.044168 -1.564246 -3.528629
  H 5.991448 -0.404350 -0.253656
 20
 74.482066
  H 1.747068 0.676040 0.111866
  C 2.814428 0.544979 -0.006364
  C 3.568298 0.418420 1.241797
  C 2.694035 0.075075 2.448168
  H 3.307900 -0.031323 3.337949
  C 3.305954 0.550864 -1.296289
  C 4.710207 0.899870 -1.834299
  C 4.447110 -0.482017 -1.789862
  C 4.352905 -1.721882 -2.617633
  H 3.408343 -1.803684 -3.146788
  O 5.376173 -0.947136 -0.800512
  H 4.059856 1.382204 1.444803
  H 4.380079 -0.316032 1.133510
  H 2.170071 -0.862019 2.290599
  H 1.958692 0.852511 2.637676
  H 2.583236 0.721066 -2.093625
  H 5.293650 1.739373 -1.545491
  H 4.470685 -2.573838 -1.951768
  H 5.163541 -1.704520 -3.341390
  H 5.830121 -0.251873 -0.291401
 20
 105.430486
  H 1.738771 0.819014 0.058131
  C 2.793872 0.607965 -0.060370
  C 3.550514 0.393931 1.167852
  C 2.681146 0.020834 2.366132
  H 3.302763 -0.127780 3.247578
  C 3.285919 0.620259 -1.356127
  C 4.792595 0.848583 -1.730707
  C 4.361156 -0.411625 -1.894378
  C 4.251903 -1.718839 -2.532856
  H 3.274210 -1.847721 -2.993746
  O 5.621105 -0.957827 -0.735762
  H 4.065265 1.337881 1.398852
  H 4.349546 -0.341522 1.009185
  H 2.142870 -0.899864 2.176922
  H 1.959248 0.801828 2.588157
  H 2.609714 0.921091 -2.152346
  H 5.278048 1.728128 -1.391254
  H 4.382565 -2.490423 -1.782444
  H 5.041240 -1.819864 -3.279396
  H 6.084995 -0.320546 -0.180276
 20
 110.681067
  H 1.762014 1.004767 0.070107
  C 2.784382 0.676785 -0.092355
  C 3.550363 0.320941 1.092864
  C 2.687059 -0.025999 2.301250
  H 3.315804 -0.234612 3.161724
  C 3.229518 0.644567 -1.388567
  C 4.822229 0.726673 -1.722319
  C 4.268559 -0.414377 -1.932141
  C 4.052352 -1.696911 -2.511240
  H 3.070923 -1.751625 -2.980392
  O 6.037018 -0.771195 -0.475817
  H 4.165345 1.195273 1.346977
  H 4.270000 -0.473435 0.863033
  H 2.085992 -0.909019 2.103153
  H 2.021634 0.793994 2.558129
  H 2.570064 0.997753 -2.174163
  H 5.333243 1.609147 -1.433676
  H 4.085239 -2.457629 -1.727479
  H 4.843259 -1.911346 -3.227849
  H 6.536023 -0.165324 0.078782
 20
 104.819106
  H 1.869549 1.127831 0.050982
  C 2.845193 0.675654 -0.097669
  C 3.543120 0.244775 1.110752
  C 2.614530 0.010018 2.293804
  H 3.192971 -0.256643 3.173423
  C 3.294037 0.582949 -1.384438
  C 5.010699 0.548728 -1.657212
  C 4.237919 -0.480265 -1.889350
  C 3.918430 -1.734015 -2.497737
  H 2.941732 -1.706748 -2.983192
  O 6.121448 -0.454626 -0.579390
  H 4.246641 1.045410 1.375547
  H 4.160802 -0.633663 0.912493
  H 1.926374 -0.804492 2.084069
  H 2.034670 0.900892 2.521277
  H 2.683241 1.001285 -2.177088
  H 5.555096 1.438697 -1.342428
  H 3.860935 -2.523451 -1.741123
  H 4.702158 -2.010119 -3.201490
  H 6.654123 0.172701 -0.078084
 20
 68.465860
  H 1.832372 1.173794 0.002239
  C 2.789474 0.687167 -0.127342
  C 3.480000 0.287577 1.120552
  C 2.510165 0.021906 2.268449
  H 3.057240 -0.177801 3.184810
  C 3.256297 0.557096 -1.366225
  C 5.346951 0.387175 -1.649374
  C 4.273527 -0.438434 -1.804854
  C 3.899352 -1.699002 -2.379900
  H 2.913623 -1.636223 -2.832112
  O 6.246175 -0.403972 -0.848611
  H 4.142112 1.106681 1.407324
  H 4.129681 -0.583324 0.952826
  H 1.874515 -0.833578 2.053794
  H 1.874332 0.887589 2.443455
  H 2.632518 0.888524 -2.187991
  H 5.696339 1.312066 -1.235740
  H 3.834465 -2.458288 -1.599836
  H 4.652633 -2.039394 -3.098250
  H 6.947010 0.142191 -0.442786
 20
 27.824674
  H 1.713787 1.172027 0.020483
  C 2.656857 0.664526 -0.122850
  C 3.378330 0.289028 1.133377
  C 2.435687 0.114644 2.320942
  H 3.002295 -0.140843 3.215075
  C 3.121006 0.494429 -1.349783
  C 5.486241 0.260151 -1.551787
  C 4.241234 -0.347226 -1.747457
  C 3.982450 -1.659497 -2.319469
  H 3.034596 -1.680842 -2.845253
  O 6.451378 -0.570406 -1.216694
  H 4.086221 1.092895 1.352556
  H 3.963630 -0.618292 0.984631
  H 1.712103 -0.673050 2.137642
  H 1.900236 1.043540 2.527719
  H 2.570125 0.949140 -2.175316
  H 5.640309 1.249158 -1.145932
  H 3.904770 -2.392532 -1.507120
  H 4.803395 -1.982567 -2.960431
  H 7.268722 -0.155783 -0.876448
 20
 11.962528
  H 1.670789 1.169808 0.071030
  C 2.617591 0.661983 -0.064072
  C 3.373076 0.371810 1.180590
  C 2.474418 0.250434 2.405967
  H 3.067978 0.092801 3.296767
  C 3.002367 0.344083 -1.315018
  C 5.435924 0.089399 -1.317679
  C 4.184349 -0.385779 -1.690077
  C 4.045807 -1.614978 -2.492860
  H 3.099766 -1.645012 -3.026527
  O 6.486018 -0.673565 -1.421107
  H 4.060383 1.212119 1.339235
  H 3.980658 -0.527885 1.075669
  H 1.793069 -0.590785 2.299754
  H 1.885414 1.151986 2.546997
  H 2.342835 0.603444 -2.133735
  H 5.523407 1.039924 -0.804009
  H 4.056351 -2.465860 -1.804397
  H 4.884396 -1.752850 -3.172596
  H 7.327745 -0.280498 -1.121717
 20
 6.840553
  H 1.596995 0.971429 0.103203
  C 2.583017 0.539879 -0.007629
  C 3.368571 0.441190 1.237328
  C 2.497770 0.476597 2.490524
  H 3.116972 0.441495 3.382622
  C 2.932268 0.106458 -1.249156
  C 5.382490 -0.134789 -1.123779
  C 4.151669 -0.487966 -1.672706
  C 4.130649 -1.491075 -2.764233
  H 3.186119 -1.493180 -3.297179
  O 6.459592 -0.765171 -1.482577
  H 4.040288 1.308195 1.273827
  H 3.993589 -0.453858 1.240423
  H 1.825688 -0.377707 2.512604
  H 1.900021 1.383947 2.526875
  H 2.167980 0.151797 -2.014846
  H 5.454551 0.694419 -0.430828
  H 4.276643 -2.480047 -2.324034
  H 4.955413 -1.340876 -3.458152
  H 7.292056 -0.440159 -1.090072
 20
 6.419312
  H 1.498679 0.656042 0.165372
  C 2.534399 0.362892 0.047856
  C 3.349537 0.474236 1.269810
  C 2.509656 0.679598 2.527009
  H 3.151469 0.792804 3.396430
  C 2.889940 -0.098323 -1.190349
  C 5.363847 -0.320674 -1.030372
  C 4.143971 -0.535975 -1.676612
  C 4.196949 -1.300766 -2.949766
  H 3.224696 -1.371960 -3.424103
  O 6.430548 -0.898045 -1.489840
  H 4.013870 1.340925 1.160953
  H 3.987319 -0.404850 1.391826
  H 1.860732 -0.175764 2.698593
  H 1.889652 1.568521 2.443740
  H 2.084373 -0.191398 -1.907032
  H 5.447617 0.347146 -0.183844
  H 4.564255 -2.307868 -2.746062
  H 4.909981 -0.853675 -3.640922
  H 7.260851 -0.712286 -1.010471
