 19
 0.000000
  H 1.427837 0.193545 0.533353
  C 2.495507 0.141075 0.402409
  H 3.132618 0.464998 1.208881
  C 3.014318 -0.327294 -0.764487
  C 4.408917 -0.411948 -0.975797
  C 5.069345 -0.862678 -2.099416
  C 4.595370 -1.376562 -3.380287
  C 3.123849 -1.512111 -3.718785
  C 2.933178 -2.075983 -5.123970
  H 6.152960 -0.845615 -2.056964
  H 2.345117 -0.641653 -1.547725
  H 5.029618 -0.081065 -0.151221
  H 5.082039 -2.356718 -3.511640
  H 5.082541 -0.759419 -4.152683
  H 2.634026 -0.536534 -3.672471
  H 2.633707 -2.184867 -3.010992
  H 3.380200 -1.427516 -5.873706
  H 1.874421 -2.167047 -5.351412
  H 3.379984 -3.062888 -5.217392
 19
 -0.144049
  H 1.435832 0.147313 0.569746
  C 2.487004 0.196253 0.346940
  H 3.097944 0.811123 0.989808
  C 3.016103 -0.464062 -0.715273
  C 4.400814 -0.400965 -0.998160
  C 5.075952 -0.917184 -2.083739
  C 4.603607 -1.445294 -3.352709
  C 3.133250 -1.542526 -3.695296
  C 2.926664 -1.970568 -5.149484
  H 6.157521 -0.896003 -2.011867
  H 2.372709 -1.070311 -1.330572
  H 5.004558 0.103079 -0.250927
  H 5.089627 -2.423968 -3.495285
  H 5.118648 -0.858275 -4.138433
  H 2.641447 -0.581362 -3.538177
  H 2.647659 -2.279728 -3.047811
  H 3.360775 -1.247574 -5.842072
  H 1.862612 -2.046353 -5.372868
  H 3.378425 -2.942017 -5.343385
 19
 0.955180
  H 1.423263 -0.068516 0.519534
  C 2.419273 0.176730 0.193919
  H 2.837727 1.102823 0.548945
  C 3.093549 -0.615841 -0.674236
  C 4.452879 -0.403491 -1.015474
  C 5.132129 -0.960291 -2.072720
  C 4.625260 -1.465838 -3.340876
  C 3.141466 -1.517798 -3.637493
  C 2.878246 -1.855637 -5.099789
  H 6.216126 -0.947788 -2.023940
  H 2.618120 -1.501370 -1.071822
  H 5.026978 0.198671 -0.324590
  H 5.086058 -2.449816 -3.518429
  H 5.124602 -0.863157 -4.123523
  H 2.668759 -0.559459 -3.399464
  H 2.663993 -2.280484 -3.021007
  H 3.293256 -1.099542 -5.760625
  H 1.809642 -1.907895 -5.287264
  H 3.312050 -2.816148 -5.366649
 19
 2.449227
  H 1.316582 0.071062 0.129772
  C 2.360820 0.238377 -0.069005
  H 2.750486 1.218682 0.156340
  C 3.122068 -0.699151 -0.672136
  C 4.513970 -0.551157 -0.946630
  C 5.187348 -1.003823 -2.045059
  C 4.645455 -1.439017 -3.329214
  C 3.151110 -1.545699 -3.544515
  C 2.805856 -1.785212 -5.008325
  H 6.271009 -0.991359 -2.011771
  H 2.696659 -1.664554 -0.909599
  H 5.087311 -0.012151 -0.197855
  H 5.137332 -2.390514 -3.589721
  H 5.076847 -0.770303 -4.094098
  H 2.651275 -0.634003 -3.200778
  H 2.744993 -2.369996 -2.954644
  H 3.151209 -0.965256 -5.634472
  H 1.729007 -1.870324 -5.132426
  H 3.256999 -2.703061 -5.375916
 19
 4.332511
  H 1.337444 -0.070912 0.065350
  C 2.345362 0.171288 -0.212998
  H 2.614862 1.213639 -0.208310
  C 3.197576 -0.767312 -0.651506
  C 4.590429 -0.586525 -0.936759
  C 5.242916 -0.931597 -2.085174
  C 4.659796 -1.322723 -3.366687
  C 3.166858 -1.517934 -3.496666
  C 2.746413 -1.809766 -4.929946
  H 6.319744 -0.834175 -2.099537
  H 2.853946 -1.795935 -0.744325
  H 5.179562 -0.142609 -0.140696
  H 5.183934 -2.233763 -3.697663
  H 5.012680 -0.598264 -4.118213
  H 2.640483 -0.623362 -3.142365
  H 2.835770 -2.339771 -2.857979
  H 3.016211 -0.993391 -5.596551
  H 1.669290 -1.945954 -4.987577
  H 3.219044 -2.717498 -5.301795
 19
 7.353283
  H 1.355161 -0.240257 0.028223
  C 2.309985 0.085298 -0.340277
  H 2.426378 1.140097 -0.515843
  C 3.281027 -0.774037 -0.632526
  C 4.668584 -0.576238 -0.949398
  C 5.279924 -0.871999 -2.127817
  C 4.655516 -1.256126 -3.390614
  C 3.155056 -1.444098 -3.465000
  C 2.692391 -1.828676 -4.861394
  H 6.356699 -0.775080 -2.174122
  H 3.110485 -1.856417 -0.527135
  H 5.284554 -0.198226 -0.136660
  H 5.156424 -2.175580 -3.734949
  H 4.989376 -0.535613 -4.152510
  H 2.650748 -0.518196 -3.165419
  H 2.830883 -2.213458 -2.759289
  H 2.957903 -1.068043 -5.590421
  H 1.612680 -1.949127 -4.881912
  H 3.137334 -2.764201 -5.177523
 19
 12.442572
  H 1.354225 -0.388709 0.080110
  C 2.232659 0.028725 -0.380187
  H 2.178474 1.059280 -0.695647
  C 3.308942 -0.690849 -0.613955
  C 4.698927 -0.585047 -0.949164
  C 5.297094 -0.913079 -2.128364
  C 4.665649 -1.284559 -3.393098
  C 3.156054 -1.367456 -3.474191
  C 2.694801 -1.804004 -4.863035
  H 6.387064 -0.893805 -2.158568
  H 3.378794 -1.765768 -0.369739
  H 5.335402 -0.241834 -0.123461
  H 5.104054 -2.242167 -3.709170
  H 5.053406 -0.595893 -4.166104
  H 2.720379 -0.396065 -3.240131
  H 2.768067 -2.081237 -2.738608
  H 3.037779 -1.107631 -5.624685
  H 1.606879 -1.839630 -4.901818
  H 3.068776 -2.790191 -5.113730
 19
 19.941373
  H 1.389508 -0.474266 0.155978
  C 2.200309 0.031090 -0.333404
  H 2.041908 1.057333 -0.608763
  C 3.310048 -0.557588 -0.637857
  C 4.703753 -0.553994 -0.973715
  C 5.284893 -0.888831 -2.175343
  C 4.646798 -1.288671 -3.426963
  C 3.132733 -1.402876 -3.469655
  C 2.653404 -1.826078 -4.854423
  H 6.370222 -0.875374 -2.193230
  H 3.603274 -1.619470 -0.346387
  H 5.359253 -0.233753 -0.174538
  H 5.093528 -2.247664 -3.729233
  H 4.993900 -0.604924 -4.212645
  H 2.680158 -0.442903 -3.218147
  H 2.789627 -2.137846 -2.740001
  H 2.956923 -1.103955 -5.609705
  H 1.569648 -1.895938 -4.874898
  H 3.056941 -2.797070 -5.130933
 19
 29.129102
  H 1.418234 -0.577894 0.191595
  C 2.168585 0.014700 -0.305475
  H 1.902861 1.004856 -0.615721
  C 3.293867 -0.454659 -0.637224
  C 4.673420 -0.547640 -0.977706
  C 5.274856 -0.929758 -2.170178
  C 4.652297 -1.333731 -3.428870
  C 3.134938 -1.400078 -3.475150
  C 2.648505 -1.805545 -4.862898
  H 6.383426 -0.927177 -2.154227
  H 3.799267 -1.507355 -0.362707
  H 5.349530 -0.174882 -0.216166
  H 5.086408 -2.300408 -3.727459
  H 5.015996 -0.657559 -4.212172
  H 2.709294 -0.423527 -3.228820
  H 2.767722 -2.115687 -2.739077
  H 2.994660 -1.102796 -5.616896
  H 1.561887 -1.825115 -4.892750
  H 3.009428 -2.797494 -5.130135
 19
 32.948042
  H 1.395610 -0.589806 0.053177
  C 2.138365 0.052961 -0.395642
  H 1.789543 1.054936 -0.608323
  C 3.332310 -0.300780 -0.684887
  C 4.679449 -0.626322 -0.918535
  C 5.292400 -0.975682 -2.151019
  C 4.648062 -1.342447 -3.417919
  C 3.124418 -1.398443 -3.463288
  C 2.641500 -1.803807 -4.852682
  H 6.371071 -0.994393 -2.154075
  H 4.067137 -1.531524 -0.428299
  H 5.368635 -0.253302 -0.161159
  H 5.059476 -2.308345 -3.741521
  H 5.003030 -0.640929 -4.185339
  H 2.709812 -0.421451 -3.220096
  H 2.751184 -2.126811 -2.741787
  H 2.982346 -1.095968 -5.605650
  H 1.555353 -1.831997 -4.885512
  H 3.012076 -2.791469 -5.121959
 19
 30.781510
  H 1.405975 -0.602031 0.032087
  C 2.120024 0.071009 -0.426810
  H 1.712040 1.051094 -0.644347
  C 3.325674 -0.232988 -0.701369
  C 4.662936 -0.631521 -0.886407
  C 5.283756 -1.010766 -2.137535
  C 4.640225 -1.363636 -3.404081
  C 3.117087 -1.409910 -3.455975
  C 2.637915 -1.785058 -4.854930
  H 6.361904 -1.045005 -2.129704
  H 4.349522 -1.622918 -0.451759
  H 5.351272 -0.173288 -0.174819
  H 5.048603 -2.327336 -3.739183
  H 5.001940 -0.654694 -4.163947
  H 2.705926 -0.435539 -3.194262
  H 2.739158 -2.149136 -2.748514
  H 2.979020 -1.060310 -5.590943
  H 1.551812 -1.814410 -4.890540
  H 3.010171 -2.765341 -5.145118
 19
 28.596769
  H 1.366857 -0.658013 -0.077581
  C 2.105658 0.043351 -0.448614
  H 1.703428 1.040213 -0.592592
  C 3.315569 -0.253798 -0.692827
  C 4.646078 -0.679994 -0.851359
  C 5.265835 -1.013094 -2.132226
  C 4.624075 -1.352243 -3.400777
  C 3.102100 -1.355764 -3.470673
  C 2.630075 -1.788113 -4.855423
  H 6.343378 -1.090199 -2.114816
  H 4.623619 -1.676713 -0.349167
  H 5.320677 -0.089016 -0.217814
  H 5.006768 -2.330342 -3.724775
  H 5.016619 -0.662539 -4.164698
  H 2.717638 -0.358408 -3.264590
  H 2.695186 -2.044639 -2.731174
  H 2.999743 -1.108770 -5.623672
  H 1.541594 -1.790934 -4.903668
  H 2.980065 -2.792767 -5.091713
 19
 28.520107
  H 1.366102 -0.660953 -0.082136
  C 2.105031 0.041244 -0.452054
  H 1.702676 1.037315 -0.595276
  C 3.315352 -0.255062 -0.695542
  C 4.647108 -0.681911 -0.853029
  C 5.266331 -1.013693 -2.132345
  C 4.625201 -1.352071 -3.399775
  C 3.101983 -1.354275 -3.469333
  C 2.629178 -1.786956 -4.853652
  H 6.342559 -1.090802 -2.114699
  H 4.626298 -1.673140 -0.347742
  H 5.320182 -0.089650 -0.221832
  H 5.007338 -2.330965 -3.723595
  H 5.018189 -0.663408 -4.163186
  H 2.718035 -0.355496 -3.263513
  H 2.694265 -2.042964 -2.728773
  H 2.998414 -1.109885 -5.620863
  H 1.543247 -1.788796 -4.901624
  H 2.977473 -2.790315 -5.089188
