 29
 0.000000
  C 0.970623 0.140123 0.400938
  C 2.446619 0.138268 0.395546
  C 3.234482 0.606887 1.561015
  C 2.459402 1.096613 2.779880
  H 3.135356 1.410743 3.561150
  C 3.061055 -0.326558 -0.761494
  C 4.438776 -0.411171 -0.972728
  C 5.118191 -0.862460 -2.097988
  C 4.622359 -1.385043 -3.401170
  C 3.132094 -1.503357 -3.697182
  C 2.911635 -2.065446 -5.098912
  O 6.441106 -0.858555 -2.088456
  H 0.538446 0.510736 1.323155
  H 0.598559 -0.871587 0.234555
  H 0.598117 0.755064 -0.419286
  H 3.890541 1.417988 1.225903
  H 3.890912 -0.210240 1.880351
  H 1.823611 0.302549 3.170084
  H 1.823308 1.939654 2.512137
  H 2.402899 -0.644128 -1.551861
  H 5.053078 -0.077820 -0.142091
  H 5.078991 -2.373396 -3.526801
  H 5.079458 -0.757693 -4.174900
  H 2.656360 -0.523261 -3.644741
  H 2.655895 -2.175400 -2.982160
  H 3.351427 -1.417819 -5.853890
  H 1.847290 -2.147641 -5.304633
  H 3.350984 -3.055479 -5.197128
  H 6.803739 -0.521645 -1.247576
 29
 1.279943
  C 0.942814 0.015792 0.483960
  C 2.415274 0.068838 0.429427
  C 3.216481 0.674650 1.519890
  C 2.453593 1.238126 2.711538
  H 3.159232 1.628300 3.440267
  C 3.021613 -0.474918 -0.699419
  C 4.395246 -0.511186 -0.929709
  C 5.093065 -0.929442 -2.058002
  C 4.615559 -1.375846 -3.393485
  C 3.127232 -1.473208 -3.702755
  C 2.924475 -1.933095 -5.144250
  O 6.413114 -0.867031 -2.032704
  H 0.529114 0.484524 1.367875
  H 0.610611 -1.023174 0.447653
  H 0.520022 0.492339 -0.401488
  H 3.829519 1.473881 1.089335
  H 3.921668 -0.080139 1.884566
  H 1.860584 0.470177 3.201994
  H 1.798476 2.053108 2.413873
  H 2.362854 -0.897319 -1.438503
  H 5.048799 -0.141654 -0.150746
  H 5.080825 -2.352644 -3.568883
  H 5.086544 -0.707922 -4.124398
  H 2.651994 -0.499637 -3.579908
  H 2.650397 -2.197318 -3.041953
  H 3.355836 -1.221737 -5.844543
  H 1.864412 -2.023912 -5.366432
  H 3.388138 -2.902328 -5.312707
  H 6.843270 -0.908001 -1.160016
 29
 6.001943
  C 0.940303 -0.125996 0.540730
  C 2.408294 -0.018062 0.454420
  C 3.197788 0.737670 1.455959
  C 2.427410 1.403578 2.588584
  H 3.127204 1.911320 3.248779
  C 3.025876 -0.647232 -0.626911
  C 4.398197 -0.646017 -0.872710
  C 5.101080 -1.012333 -2.011139
  C 4.629036 -1.342043 -3.378636
  C 3.137150 -1.432412 -3.672739
  C 2.911625 -1.762414 -5.145449
  O 6.424357 -0.916554 -1.961187
  H 0.522211 0.395329 1.392171
  H 0.650474 -1.176894 0.589655
  H 0.485238 0.261065 -0.371936
  H 3.768652 1.507489 0.924665
  H 3.942480 0.060494 1.886240
  H 1.882679 0.674425 3.182902
  H 1.729633 2.147341 2.212509
  H 2.383795 -1.198853 -1.294447
  H 5.079579 -0.305914 -0.106238
  H 5.107353 -2.291709 -3.645389
  H 5.083069 -0.600037 -4.047302
  H 2.654729 -0.479193 -3.451213
  H 2.679651 -2.213898 -3.068007
  H 3.326411 -0.986960 -5.785775
  H 1.848566 -1.842081 -5.357537
  H 3.379558 -2.707869 -5.408418
  H 6.928364 -1.313014 -1.231103
 29
 14.230495
  C 0.920186 -0.048759 0.515226
  C 2.382909 0.034485 0.426101
  C 3.193813 0.729963 1.447538
  C 2.451419 1.322779 2.633328
  H 3.164417 1.796776 3.302643
  C 2.991058 -0.594610 -0.657582
  C 4.357916 -0.580226 -0.914152
  C 5.079952 -0.967455 -2.027810
  C 4.653094 -1.354695 -3.368638
  C 3.165411 -1.426593 -3.666384
  C 2.945158 -1.827338 -5.119918
  O 6.388690 -0.852921 -1.901696
  H 0.513466 0.458091 1.382433
  H 0.618404 -1.091319 0.530595
  H 0.466083 0.372462 -0.385014
  H 3.775040 1.516447 0.955296
  H 3.926805 0.012269 1.822571
  H 1.919392 0.559908 3.195172
  H 1.745722 2.085461 2.315388
  H 2.344832 -1.083085 -1.370067
  H 5.105419 -0.219144 -0.221699
  H 5.120442 -2.313662 -3.597974
  H 5.115168 -0.633672 -4.056060
  H 2.691945 -0.460575 -3.484154
  H 2.704067 -2.181997 -3.033077
  H 3.368920 -1.086486 -5.793783
  H 1.883442 -1.909445 -5.333585
  H 3.404049 -2.789661 -5.334682
  H 7.021104 -1.337006 -1.378187
 29
 32.288853
  C 0.864693 -0.076910 0.645090
  C 2.330644 -0.014805 0.491593
  C 3.200795 0.719978 1.442111
  C 2.508732 1.433176 2.596148
  H 3.256374 1.916324 3.220077
  C 2.886946 -0.656052 -0.608565
  C 4.245649 -0.689683 -0.881031
  C 5.004250 -1.032049 -2.016247
  C 4.696177 -1.346165 -3.428954
  C 3.208952 -1.457267 -3.760031
  C 2.999498 -1.778496 -5.235419
  O 6.282148 -0.883318 -1.721506
  H 0.506531 0.471775 1.507621
  H 0.546426 -1.116557 0.731693
  H 0.379042 0.320148 -0.246948
  H 3.753700 1.463760 0.859805
  H 3.937278 0.018531 1.842260
  H 1.954774 0.736929 3.221081
  H 1.829635 2.203903 2.240357
  H 2.219678 -1.211123 -1.251484
  H 5.177661 -0.465641 -0.320667
  H 5.179858 -2.304330 -3.648124
  H 5.166295 -0.591225 -4.064963
  H 2.716734 -0.510054 -3.531897
  H 2.746075 -2.231950 -3.149117
  H 3.407642 -0.991367 -5.865020
  H 1.939816 -1.873202 -5.457763
  H 3.485973 -2.714416 -5.501615
  H 7.046336 -1.215880 -1.241191
 29
 62.445631
  C 0.818637 -0.023979 0.690967
  C 2.285076 -0.012533 0.510218
  C 3.200877 0.696007 1.440001
  C 2.566076 1.445420 2.604641
  H 3.348791 1.908699 3.200422
  C 2.807283 -0.693870 -0.577097
  C 4.154143 -0.720884 -0.896820
  C 4.924046 -1.037820 -2.010851
  C 4.699583 -1.347087 -3.435553
  C 3.224097 -1.474827 -3.812616
  C 3.063698 -1.800113 -5.293192
  O 6.209018 -0.876335 -1.627554
  H 0.499237 0.548918 1.553491
  H 0.467049 -1.049779 0.806477
  H 0.327486 0.378866 -0.195273
  H 3.764461 1.414543 0.837278
  H 3.920074 -0.025164 1.836013
  H 2.016162 0.772488 3.258611
  H 1.899432 2.232634 2.261895
  H 2.120001 -1.263412 -1.191751
  H 5.329393 -0.487587 -0.447072
  H 5.206772 -2.295776 -3.641005
  H 5.174817 -0.576420 -4.048890
  H 2.718471 -0.531070 -3.602208
  H 2.754647 -2.257841 -3.216989
  H 3.488489 -1.012185 -5.910671
  H 2.012204 -1.899792 -5.550146
  H 3.561714 -2.735000 -5.540912
  H 7.005885 -1.162617 -1.159566
 29
 82.964618
  C 0.797324 -0.029578 0.741334
  C 2.262824 -0.032131 0.516214
  C 3.201249 0.705054 1.412688
  C 2.586285 1.484050 2.567760
  H 3.378451 1.965882 3.136247
  C 2.757141 -0.732425 -0.554498
  C 4.096700 -0.777357 -0.926331
  C 4.858462 -1.071734 -1.978736
  C 4.687400 -1.358296 -3.419667
  C 3.222380 -1.463635 -3.837248
  C 3.102003 -1.764932 -5.326689
  O 6.221828 -0.907400 -1.541799
  H 0.505531 0.568185 1.596125
  H 0.442403 -1.049067 0.892974
  H 0.282460 0.350895 -0.141381
  H 3.756972 1.404235 0.779404
  H 3.929208 -0.002385 1.816219
  H 2.049398 0.828021 3.249098
  H 1.912246 2.260705 2.215026
  H 2.054174 -1.321435 -1.137910
  H 5.529110 -0.539706 -0.535061
  H 5.194262 -2.306774 -3.626124
  H 5.188656 -0.584251 -4.008479
  H 2.719313 -0.518782 -3.625272
  H 2.727777 -2.250452 -3.267024
  H 3.552521 -0.972557 -5.920021
  H 2.057230 -1.850516 -5.614602
  H 3.597462 -2.701278 -5.574081
  H 7.020754 -1.234669 -1.085166
 29
 71.769735
  C 0.759229 -0.016911 0.735317
  C 2.229168 -0.033871 0.500418
  C 3.171047 0.726339 1.387906
  C 2.551440 1.528694 2.522541
  H 3.339872 2.023061 3.086302
  C 2.711655 -0.757828 -0.545740
  C 4.039755 -0.830734 -0.920355
  C 4.819161 -1.123386 -1.924116
  C 4.643049 -1.397539 -3.382076
  C 3.178726 -1.463009 -3.818705
  C 3.079951 -1.716756 -5.319981
  O 6.254089 -0.955844 -1.468177
  H 0.472792 0.600244 1.576903
  H 0.404692 -1.028210 0.917554
  H 0.238930 0.347581 -0.154490
  H 3.729316 1.415411 0.746104
  H 3.892571 0.027152 1.812643
  H 2.002538 0.890437 3.218192
  H 1.886663 2.293678 2.143883
  H 2.000916 -1.365451 -1.103393
  H 5.827955 -0.605770 -0.622991
  H 5.154255 -2.336969 -3.623596
  H 5.150496 -0.606468 -3.947368
  H 2.686048 -0.519049 -3.583711
  H 2.667190 -2.262390 -3.279259
  H 3.549890 -0.911768 -5.876357
  H 2.038883 -1.776049 -5.629809
  H 3.569864 -2.651321 -5.591520
  H 7.001852 -1.466080 -1.042692
 29
 69.232075
  C 0.696619 -0.031044 1.026061
  C 2.118736 -0.054686 0.611307
  C 3.165620 0.747999 1.314444
  C 2.703671 1.611058 2.480300
  H 3.560330 2.129408 2.904754
  C 2.480444 -0.847223 -0.450499
  C 3.742726 -0.938217 -0.995999
  C 4.523728 -1.166638 -1.959047
  C 4.615091 -1.377580 -3.401550
  C 3.216775 -1.461619 -4.025575
  C 3.314316 -1.709270 -5.525552
  O 6.142726 -1.013707 -1.323060
  H 0.514021 0.637431 1.858103
  H 0.375575 -1.032663 1.309697
  H 0.067070 0.267604 0.186248
  H 3.643967 1.388926 0.566600
  H 3.933015 0.060666 1.679914
  H 2.257044 1.006733 3.268086
  H 1.988500 2.363595 2.163200
  H 1.722046 -1.489077 -0.889433
  H 5.637118 -0.672976 -0.560578
  H 5.148702 -2.316737 -3.573522
  H 5.190721 -0.575205 -3.869232
  H 2.682294 -0.530724 -3.836480
  H 2.662723 -2.276091 -3.556081
  H 3.837561 -0.894903 -6.019454
  H 2.321001 -1.787000 -5.960601
  H 3.846677 -2.635398 -5.732624
  H 6.943176 -1.375468 -0.876000
 29
 54.458058
  C 0.682140 0.087074 1.299281
  C 2.035610 0.007622 0.720584
  C 3.197387 0.718468 1.312479
  C 2.937275 1.563367 2.551529
  H 3.869662 2.017033 2.878909
  C 2.216554 -0.762511 -0.410475
  C 3.389886 -0.907451 -1.116882
  C 4.162738 -1.137197 -2.066876
  C 4.519507 -1.402774 -3.430122
  C 3.269120 -1.556850 -4.307353
  C 3.666222 -1.854730 -5.747423
  O 6.038248 -0.915050 -1.208180
  H 0.631928 0.728764 2.170224
  H 0.338202 -0.909702 1.578871
  H -0.022492 0.449923 0.549592
  H 3.619946 1.357271 0.527517
  H 3.966319 -0.022139 1.552334
  H 2.560652 0.959944 3.373905
  H 2.232826 2.365378 2.346248
  H 1.369937 -1.323704 -0.792723
  H 5.418533 -0.600001 -0.515200
  H 5.104489 -2.326780 -3.459660
  H 5.162344 -0.605616 -3.814672
  H 2.687712 -0.634962 -4.272798
  H 2.647254 -2.367338 -3.925746
  H 4.260177 -1.043259 -6.161076
  H 2.778989 -1.974162 -6.364081
  H 4.247321 -2.771767 -5.810573
  H 6.859117 -1.061659 -0.706766
