 20
 0.000000
  C 1.006900 -0.072385 0.045955
  C 2.503167 -0.082457 0.026185
  C 3.220416 -0.594735 -0.979504
  C 4.658014 -0.605044 -0.999740
  C 5.379276 -1.119930 -2.010543
  C 6.817074 -1.129481 -2.029291
  C 7.533323 -1.641814 -3.035097
  C 9.023178 -1.662597 -3.075891
  H 0.643003 0.393524 0.960606
  H 0.612140 -1.087425 0.006376
  H 0.612141 0.492402 -0.798372
  H 3.002381 0.353216 0.881485
  H 2.710432 -1.028445 -1.830940
  H 5.162699 -0.170196 -0.146064
  H 4.875838 -1.555029 -2.864716
  H 7.325173 -0.695405 -1.177125
  H 7.032707 -2.077607 -3.890616
  H 9.458726 -1.209809 -2.186998
  H 9.381405 -1.117142 -3.950331
  H 9.381405 -2.690621 -3.148829
 20
 12.345623
  C 1.161771 -0.000178 0.187708
  C 2.644035 -0.101088 -0.010392
  C 3.216477 -0.646204 -1.080542
  C 4.643893 -0.746418 -1.277276
  C 5.211729 -1.289310 -2.343064
  C 6.570889 -1.193754 -2.155474
  C 7.512852 -1.643616 -3.038637
  C 8.983558 -1.540904 -2.837014
  H 0.923101 0.480552 1.131441
  H 0.705896 -0.989479 0.179015
  H 0.705902 0.574451 -0.617632
  H 3.268095 0.299255 0.775546
  H 2.593130 -1.045332 -1.864101
  H 5.226633 -0.334825 -0.469254
  H 4.723048 -1.722372 -3.193233
  H 6.953134 -0.734579 -1.254034
  H 7.196255 -2.110335 -3.954887
  H 9.215852 -1.057800 -1.888607
  H 9.441011 -0.964166 -3.647841
  H 9.441057 -2.535939 -2.847253
 20
 46.190815
  C 1.292316 0.029761 0.246500
  C 2.749747 -0.115975 -0.039636
  C 3.243872 -0.678008 -1.143007
  C 4.674673 -0.822022 -1.425715
  C 5.118248 -1.386829 -2.534514
  C 6.408257 -1.213982 -2.195186
  C 7.471630 -1.632825 -3.017446
  C 8.909275 -1.463728 -2.685508
  H 1.125884 0.517275 1.203578
  H 0.806330 -0.946370 0.265904
  H 0.806299 0.619397 -0.531683
  H 3.431626 0.265832 0.709938
  H 2.552373 -1.058632 -1.890217
  H 5.238159 -0.409469 -0.615807
  H 4.643822 -1.818871 -3.382676
  H 6.783158 -0.763478 -1.310779
  H 7.255297 -2.115797 -3.965583
  H 9.033558 -0.973654 -1.723448
  H 9.410561 -0.866672 -3.448772
  H 9.410663 -2.432272 -2.651346
 20
 92.832545
  C 1.351224 0.041016 0.268687
  C 2.807888 -0.123626 -0.054683
  C 3.273071 -0.688856 -1.164373
  C 4.729048 -0.853336 -1.487291
  C 5.067651 -1.435601 -2.630350
  C 6.305173 -1.206573 -2.180761
  C 7.448985 -1.623706 -2.999658
  C 8.866197 -1.428272 -2.616058
  H 1.212580 0.530712 1.230097
  H 0.854365 -0.928083 0.299709
  H 0.854225 0.635952 -0.497009
  H 3.511035 0.250792 0.680382
  H 2.562553 -1.058173 -1.889294
  H 5.223999 -0.428447 -0.653189
  H 4.597906 -1.864093 -3.471491
  H 6.748654 -0.769946 -1.323623
  H 7.269533 -2.111530 -3.957270
  H 8.943159 -0.938483 -1.654670
  H 9.389613 -0.816862 -3.362324
  H 9.390115 -2.392140 -2.560194
 20
 143.351854
  C 1.415137 0.042054 0.270465
  C 2.856093 -0.125513 -0.058316
  C 3.311987 -0.694953 -1.176203
  C 4.779842 -0.862478 -1.504982
  C 5.024607 -1.468523 -2.694853
  C 6.226849 -1.189322 -2.146568
  C 7.416478 -1.614815 -2.981860
  C 8.818738 -1.407782 -2.575332
  H 1.286111 0.530405 1.229182
  H 0.914191 -0.931166 0.304033
  H 0.914359 0.641329 -0.496923
  H 3.562674 0.246026 0.671125
  H 2.581430 -1.069855 -1.912402
  H 5.243793 -0.425423 -0.646852
  H 4.560844 -1.892962 -3.528234
  H 6.731249 -0.760685 -1.304983
  H 7.241771 -2.100845 -3.936074
  H 8.873379 -0.907947 -1.594535
  H 9.347376 -0.792210 -3.303016
  H 9.347271 -2.357662 -2.505537
 20
 188.941969
  C 1.421538 0.043347 0.273087
  C 2.869941 -0.122064 -0.051425
  C 3.332247 -0.691843 -1.169960
  C 4.811548 -0.857974 -1.496068
  C 4.994280 -1.485367 -2.727973
  C 6.164805 -1.168069 -2.104812
  C 7.423179 -1.615112 -2.982418
  C 8.826297 -1.402086 -2.564096
  H 1.293732 0.533083 1.234185
  H 0.923467 -0.924158 0.315802
  H 0.923782 0.646853 -0.484356
  H 3.571985 0.249781 0.678587
  H 2.610298 -1.063991 -1.900744
  H 5.224643 -0.409731 -0.616000
  H 4.534776 -1.911635 -3.565065
  H 6.737151 -0.758710 -1.301016
  H 7.245483 -2.098388 -3.931152
  H 8.869344 -0.903674 -1.586405
  H 9.363137 -0.780195 -3.284967
  H 9.363149 -2.350078 -2.485258
 20
 227.065016
  C 1.404847 0.044103 0.274744
  C 2.867145 -0.108073 -0.023871
  C 3.352554 -0.678594 -1.143676
  C 4.813129 -0.834757 -1.450568
  C 4.977875 -1.488491 -2.734267
  C 6.099126 -1.142480 -2.054866
  C 7.459005 -1.623744 -2.999833
  C 8.858348 -1.410160 -2.580479
  H 1.251901 0.533590 1.234980
  H 0.912851 -0.929484 0.304763
  H 0.913048 0.640830 -0.495283
  H 3.555926 0.270802 0.719571
  H 2.639682 -1.050721 -1.874232
  H 5.179956 -0.368128 -0.534675
  H 4.536635 -1.919681 -3.581007
  H 6.760658 -0.761744 -1.307367
  H 7.271627 -2.106555 -3.947491
  H 8.903065 -0.913798 -1.605583
  H 9.401837 -0.789713 -3.303172
  H 9.401487 -2.359520 -2.503343
 20
 228.746208
  C 1.145199 0.002242 0.270869
  C 2.633403 -0.043857 0.121662
  C 3.253099 -0.585500 -0.965530
  C 4.646569 -0.641235 -1.157882
  C 4.994260 -1.324425 -2.575200
  C 6.010215 -0.998445 -1.920159
  C 7.790041 -1.752719 -3.146939
  C 9.223997 -1.585963 -2.832593
  H 0.872306 0.484469 1.198587
  H 0.715698 -0.998818 0.275947
  H 0.681851 0.557438 -0.543390
  H 3.224694 0.392872 0.906788
  H 2.608696 -0.979935 -1.748023
  H 5.086997 -0.196603 -0.279333
  H 4.510342 -1.728082 -3.416671
  H 6.771408 -0.595136 -1.310827
  H 7.625923 -2.312051 -4.083810
  H 9.364582 -1.031786 -1.908909
  H 9.736627 -1.040040 -3.632888
  H 9.728441 -2.551265 -2.724950
 20
 208.079226
  C 1.012017 -0.198327 0.249476
  C 2.491504 0.012482 0.196633
  C 3.267910 -0.511691 -0.783945
  C 4.647704 -0.294058 -0.867354
  C 5.052279 -0.964693 -2.704716
  C 5.866287 -0.713522 -1.760401
  C 7.949919 -1.754066 -3.180281
  C 9.402249 -1.832281 -2.925410
  H 0.579005 0.309770 1.109129
  H 0.764581 -1.258630 0.319453
  H 0.529564 0.189460 -0.652135
  H 2.939239 0.613079 0.973498
  H 2.764661 -1.094241 -1.543153
  H 5.079785 0.314745 -0.076872
  H 4.349222 -1.299314 -3.413537
  H 6.910933 -0.565836 -1.633996
  H 7.739679 -2.326640 -4.108244
  H 9.689205 -1.325293 -2.002058
  H 9.937620 -1.365290 -3.760370
  H 9.755492 -2.869563 -2.892026
 20
 182.758277
  C 1.055132 -0.488901 0.301930
  C 2.429647 0.075362 0.137379
  C 3.333444 -0.424870 -0.723477
  C 4.655451 0.069695 -0.865885
  C 5.015504 -0.376344 -2.810453
  C 5.720351 -0.415226 -1.722404
  C 8.026587 -1.805575 -3.222692
  C 9.416106 -2.139137 -2.892554
  H 0.491846 0.068880 1.045507
  H 1.096722 -1.532940 0.615247
  H 0.506640 -0.454807 -0.641034
  H 2.688129 0.930483 0.743043
  H 3.046161 -1.262664 -1.346606
  H 4.962389 0.914551 -0.253110
  H 4.350401 -0.754616 -3.535156
  H 6.783026 -0.376677 -1.567004
  H 7.764795 -2.307438 -4.174632
  H 9.726641 -1.744296 -1.925244
  H 10.039628 -1.695084 -3.677503
  H 9.620255 -3.214300 -2.941661
 20
 159.873308
  C 0.979918 -0.495474 0.241397
  C 2.324422 0.127958 -0.020503
  C 3.339999 -0.514544 -0.608739
  C 4.626262 0.118163 -0.900983
  C 5.078020 -0.271281 -2.374090
  C 5.856476 -0.558273 -1.358173
  C 8.114937 -1.758194 -3.248484
  C 9.482877 -2.238510 -3.071639
  H 0.305136 0.215137 0.711672
  H 1.087080 -1.359820 0.896453
  H 0.525969 -0.834080 -0.691186
  H 2.445908 1.160479 0.272958
  H 3.219448 -1.544445 -0.923503
  H 4.729174 1.169080 -0.633734
  H 4.353088 -0.510408 -3.102576
  H 6.901854 -0.587703 -1.180954
  H 7.755367 -2.085064 -4.241684
  H 9.882829 -2.034990 -2.068018
  H 10.062347 -1.650606 -3.794788
  H 9.657773 -3.281274 -3.359738
