 22
 0.000000
  C 0.988872 0.155505 0.445765
  C 2.459854 0.138932 0.390513
  C 3.240623 0.604024 1.547552
  H 2.608771 0.930394 2.365613
  C 3.055332 -0.329023 -0.777050
  C 4.437128 -0.415764 -0.988563
  C 5.091263 -0.868549 -2.110423
  C 4.625570 -1.387123 -3.402203
  C 3.144609 -1.511218 -3.719083
  H 3.028357 -1.913832 -4.721469
  H 6.173304 -0.849336 -2.056640
  H 0.608969 0.526032 1.392384
  H 0.596582 -0.848676 0.275566
  H 0.589080 0.770646 -0.362367
  H 3.895142 1.427001 1.256035
  H 3.898545 -0.190115 1.903965
  H 2.388687 -0.644707 -1.561722
  H 5.074716 -0.089328 -0.177782
  H 5.102423 -2.369358 -3.525391
  H 5.106149 -0.765508 -4.170364
  H 2.653324 -0.541799 -3.691636
  H 2.649749 -2.190254 -3.029187
 22
 0.308680
  C 1.002370 0.420191 0.389165
  C 2.448512 0.154520 0.363375
  C 3.221428 0.252515 1.609862
  H 2.581996 0.454859 2.465325
  C 3.032439 -0.212450 -0.844757
  C 4.412494 -0.236901 -1.075892
  C 5.077194 -0.630493 -2.213658
  C 4.634367 -1.345100 -3.415011
  C 3.181060 -1.748059 -3.591048
  H 3.085305 -2.348575 -4.492313
  H 6.142842 -0.424677 -2.222756
  H 0.704578 0.964436 1.280627
  H 0.457919 -0.526278 0.381063
  H 0.689041 0.959964 -0.500623
  H 3.960227 1.053333 1.533811
  H 3.787299 -0.661209 1.788598
  H 2.362888 -0.429918 -1.660790
  H 5.038278 0.166521 -0.286364
  H 5.266369 -2.243394 -3.475460
  H 4.961729 -0.753320 -4.280634
  H 2.541593 -0.878764 -3.711802
  H 2.832478 -2.346654 -2.750963
 22
 4.497669
  C 1.079367 0.721975 0.363788
  C 2.424555 0.129311 0.362881
  C 3.152047 -0.050522 1.625292
  H 2.549597 0.221156 2.485302
  C 2.989356 -0.253139 -0.854093
  C 4.335622 -0.078574 -1.173991
  C 5.000268 -0.410521 -2.330130
  C 4.635908 -1.294989 -3.442057
  C 3.274828 -1.978869 -3.461093
  H 3.224974 -2.652157 -4.316973
  H 5.992252 0.014875 -2.438400
  H 0.908168 1.300987 1.266231
  H 0.312812 -0.057051 0.325235
  H 0.948935 1.349050 -0.515828
  H 4.063608 0.552334 1.627091
  H 3.493677 -1.083124 1.722532
  H 2.310265 -0.607361 -1.614458
  H 4.911744 0.498131 -0.458367
  H 5.426869 -2.061454 -3.482543
  H 4.777444 -0.730057 -4.370882
  H 2.472512 -1.257877 -3.572704
  H 3.117708 -2.566643 -2.563873
 22
 13.246418
  C 1.222257 0.964208 0.367734
  C 2.419909 0.117403 0.388153
  C 3.047034 -0.270298 1.652369
  H 2.475032 0.059744 2.514437
  C 2.971826 -0.312186 -0.837187
  C 4.236889 0.054164 -1.269114
  C 4.897172 -0.265599 -2.431383
  C 4.617902 -1.271265 -3.469786
  C 3.379559 -2.147670 -3.357681
  H 3.370118 -2.856448 -4.183192
  H 5.797733 0.305527 -2.629193
  H 1.145633 1.544136 1.283389
  H 0.311415 0.362957 0.296130
  H 1.255173 1.619925 -0.499822
  H 4.059203 0.141168 1.713653
  H 3.188749 -1.350498 1.682089
  H 2.322327 -0.887860 -1.484249
  H 4.744543 0.775872 -0.638762
  H 5.509871 -1.910087 -3.519705
  H 4.607874 -0.750491 -4.435884
  H 2.470329 -1.556639 -3.430471
  H 3.382364 -2.716023 -2.431210
 22
 24.655190
  C 1.421898 1.172662 0.372819
  C 2.445311 0.137584 0.417348
  C 2.892350 -0.428624 1.679494
  H 2.316851 -0.064177 2.527260
  C 3.012229 -0.338190 -0.816994
  C 4.147864 0.187998 -1.387429
  C 4.790173 -0.161906 -2.559129
  C 4.576316 -1.272934 -3.510409
  C 3.457116 -2.274508 -3.261933
  H 3.473268 -3.026428 -4.050067
  H 5.601170 0.489203 -2.853330
  H 1.395880 1.739571 1.303255
  H 0.433244 0.720046 0.266057
  H 1.569635 1.823458 -0.485119
  H 3.950892 -0.192873 1.836689
  H 2.868806 -1.520250 1.633845
  H 2.465719 -1.132419 -1.305743
  H 4.584499 1.029057 -0.866781
  H 5.529505 -1.809635 -3.579426
  H 4.443315 -0.828410 -4.500987
  H 2.484034 -1.792656 -3.294648
  H 3.593123 -2.789051 -2.312323
 22
 13.611247
  C 1.654217 1.337935 0.379442
  C 2.515307 0.156422 0.408282
  C 2.729483 -0.560248 1.669254
  H 2.121040 -0.167789 2.476555
  C 3.106189 -0.336907 -0.776536
  C 4.081930 0.324822 -1.514166
  C 4.679179 -0.093562 -2.679398
  C 4.501771 -1.287849 -3.524467
  C 3.481504 -2.355706 -3.155661
  H 3.515906 -3.147286 -3.901182
  H 5.437428 0.575054 -3.071712
  H 1.659933 1.878047 1.323318
  H 0.631073 0.970091 0.239199
  H 1.852185 1.996937 -0.462846
  H 3.782719 -0.468143 1.938605
  H 2.560223 -1.635719 1.557086
  H 2.774400 -1.315405 -1.096860
  H 4.433578 1.263661 -1.107405
  H 5.491052 -1.755315 -3.613779
  H 4.287846 -0.920179 -4.534628
  H 2.470113 -1.952366 -3.152590
  H 3.710813 -2.805986 -2.195761
 22
 4.467066
  C 1.897678 1.455136 0.392339
  C 2.593575 0.165869 0.411091
  C 2.546347 -0.644696 1.639633
  H 1.912033 -0.199179 2.400531
  C 3.225016 -0.346961 -0.720464
  C 4.020337 0.387541 -1.607137
  C 4.569365 -0.052041 -2.786340
  C 4.414116 -1.295255 -3.556699
  C 3.522066 -2.420757 -3.057315
  H 3.521315 -3.221590 -3.791837
  H 5.231637 0.650899 -3.275187
  H 1.969888 1.972358 1.346796
  H 0.834681 1.233113 0.250127
  H 2.187304 2.095857 -0.433796
  H 3.559527 -0.742428 2.038933
  H 2.216556 -1.663836 1.432285
  H 3.137117 -1.415085 -0.877246
  H 4.270316 1.397356 -1.308496
  H 5.425425 -1.685622 -3.734071
  H 4.077794 -0.987047 -4.556845
  H 2.496379 -2.085130 -2.931324
  H 3.893988 -2.839518 -2.126229
 22
 0.673157
  C 2.149044 1.562147 0.442626
  C 2.665094 0.189087 0.404431
  C 2.338143 -0.700092 1.534953
  H 1.726491 -0.205533 2.282375
  C 3.368552 -0.337207 -0.670264
  C 3.985217 0.410514 -1.684843
  C 4.470469 -0.041447 -2.887143
  C 4.322071 -1.324567 -3.580894
  C 3.576006 -2.477359 -2.931808
  H 3.483008 -3.289895 -3.648476
  H 5.012213 0.689640 -3.476480
  H 2.348837 2.021818 1.410018
  H 1.059371 1.514573 0.362573
  H 2.510474 2.191570 -0.362882
  H 3.257001 -1.054576 2.004961
  H 1.826280 -1.597011 1.183837
  H 3.487404 -1.409311 -0.688072
  H 4.127229 1.467356 -1.496090
  H 5.331424 -1.651737 -3.869094
  H 3.851808 -1.089394 -4.546759
  H 2.575147 -2.178221 -2.631710
  H 4.114683 -2.864052 -2.070995
 22
 2.652806
  C 2.128392 1.452315 0.201717
  C 2.759499 0.139240 0.392059
  C 2.387226 -0.672364 1.565545
  H 1.780695 -0.115359 2.271396
  C 3.616280 -0.391715 -0.556206
  C 4.255672 0.347583 -1.576476
  C 4.596565 -0.073788 -2.831131
  C 4.151881 -1.258242 -3.576799
  C 3.376508 -2.344702 -2.855893
  H 3.013179 -3.071195 -3.580015
  H 5.187869 0.608236 -3.424150
  H 1.986062 1.973727 1.148365
  H 1.128433 1.295967 -0.216169
  H 2.667221 2.062424 -0.515856
  H 3.277592 -1.054918 2.065641
  H 1.827549 -1.552872 1.248892
  H 3.854816 -1.443994 -0.473204
  H 4.556013 1.355860 -1.314915
  H 5.036975 -1.688507 -4.062597
  H 3.554074 -0.883543 -4.420938
  H 2.517202 -1.929181 -2.332376
  H 4.007337 -2.872804 -2.144190
 22
 7.237447
  C 2.100247 1.297581 -0.029159
  C 2.756964 0.043902 0.369429
  C 2.418063 -0.605216 1.648574
  H 1.824649 0.042834 2.286095
  C 3.683997 -0.513709 -0.487523
  C 4.389471 0.249299 -1.461879
  C 4.668410 -0.077018 -2.749367
  C 4.058488 -1.140133 -3.567790
  C 3.288099 -2.235806 -2.854135
  H 2.768949 -2.854441 -3.581694
  H 5.298918 0.603597 -3.309340
  H 1.833149 1.926499 0.815272
  H 1.180646 1.070727 -0.577478
  H 2.719729 1.794930 -0.778743
  H 3.319699 -0.919107 2.174724
  H 1.846525 -1.517829 1.464307
  H 3.979945 -1.541691 -0.339451
  H 4.875670 1.135867 -1.066902
  H 4.854989 -1.580309 -4.178089
  H 3.406201 -0.647180 -4.303054
  H 2.547687 -1.810434 -2.179398
  H 3.953526 -2.875510 -2.283797
 22
 16.704784
  C 2.210321 1.162216 -0.218808
  C 2.811133 -0.051456 0.355801
  C 2.341690 -0.634086 1.623116
  H 1.607821 0.002696 2.109294
  C 3.856908 -0.580448 -0.374148
  C 4.484805 0.244150 -1.380028
  C 4.642239 -0.028074 -2.699495
  C 3.898390 -1.017786 -3.498749
  C 3.203445 -2.135805 -2.747641
  H 2.580456 -2.707189 -3.430850
  H 5.236600 0.662589 -3.282631
  H 1.764528 1.836569 0.494936
  H 1.501409 0.946498 -1.024914
  H 3.040195 1.523276 -0.866890
  H 3.174939 -0.816942 2.300410
  H 1.880456 -1.604981 1.433932
  H 4.240629 -1.570436 -0.180869
  H 5.155936 0.985892 -0.958350
  H 4.592918 -1.442785 -4.231733
  H 3.172908 -0.467743 -4.113731
  H 2.565633 -1.734512 -1.958953
  H 3.922022 -2.814146 -2.298675
 22
 35.716120
  C 2.228869 1.069320 -0.255859
  C 2.768660 -0.119298 0.379373
  C 2.339097 -0.573451 1.732611
  H 1.648560 0.128610 2.186712
  C 3.793738 -0.673514 -0.330247
  C 4.363775 0.255453 -1.330110
  C 4.555511 0.018162 -2.671997
  C 3.910885 -0.986838 -3.501171
  C 3.209347 -2.120921 -2.800502
  H 2.652142 -2.702427 -3.531473
  H 5.135416 0.749313 -3.226273
  H 1.798104 1.813274 0.382953
  H 1.676995 0.960879 -1.202365
  H 3.260721 1.217924 -1.012083
  H 3.196070 -0.713080 2.389550
  H 1.834865 -1.540798 1.644915
  H 4.202700 -1.650146 -0.165091
  H 5.127132 0.895483 -0.881509
  H 4.655141 -1.390773 -4.206360
  H 3.209882 -0.455922 -4.153897
  H 2.507265 -1.740640 -2.053977
  H 3.902415 -2.781433 -2.318126
 22
 42.123730
  C 2.123803 1.039306 -0.179364
  C 2.756604 -0.091731 0.391105
  C 2.356148 -0.609891 1.735072
  H 1.598389 0.020048 2.190474
  C 3.786462 -0.614465 -0.342029
  C 4.329547 0.339355 -1.339587
  C 4.569979 0.022131 -2.695316
  C 3.964354 -1.035391 -3.497022
  C 3.140378 -2.100204 -2.790186
  H 2.644476 -2.725827 -3.527861
  H 5.196648 0.708857 -3.250109
  H 1.658512 1.761167 0.475494
  H 1.672776 0.989526 -1.159335
  H 3.471338 1.172583 -1.195818
  H 3.213289 -0.675175 2.401010
  H 1.946864 -1.612504 1.622702
  H 4.254890 -1.562238 -0.147439
  H 5.135014 0.940210 -0.903573
  H 4.756928 -1.508824 -4.090797
  H 3.349635 -0.532239 -4.258448
  H 2.377124 -1.659328 -2.155072
  H 3.771215 -2.743622 -2.184862
 22
 38.409049
  C 1.949046 1.007919 -0.099120
  C 2.706427 -0.052153 0.379083
  C 2.401633 -0.663892 1.715598
  H 1.608704 -0.124105 2.223217
  C 3.772888 -0.509493 -0.368918
  C 4.328831 0.413660 -1.383350
  C 4.627753 -0.014807 -2.718008
  C 4.036667 -1.109532 -3.466821
  C 3.102050 -2.071248 -2.749013
  H 2.627592 -2.726997 -3.474434
  H 5.320780 0.601225 -3.277080
  H 1.366134 1.601818 0.585793
  H 1.653407 1.089410 -1.130780
  H 3.574701 1.253430 -1.375412
  H 3.282701 -0.680359 2.352416
  H 2.077173 -1.692009 1.566882
  H 4.271650 -1.437231 -0.148807
  H 5.179515 0.960837 -0.955905
  H 4.841636 -1.665517 -3.967916
  H 3.506780 -0.637460 -4.308774
  H 2.319406 -1.543053 -2.213009
  H 3.646656 -2.697471 -2.049278
 22
 35.161981
  C 1.813354 0.982868 0.006913
  C 2.641981 -0.026259 0.405432
  C 2.490056 -0.657190 1.763996
  H 1.636916 -0.245327 2.294867
  C 3.671095 -0.478314 -0.423180
  C 4.268289 0.418355 -1.421810
  C 4.649216 -0.045229 -2.728868
  C 4.144876 -1.191027 -3.461483
  C 3.084765 -2.069016 -2.814349
  H 2.687576 -2.760803 -3.553010
  H 5.384555 0.550902 -3.253660
  H 1.136480 1.444315 0.701576
  H 1.638701 1.215144 -1.028858
  H 3.625602 1.317950 -1.494514
  H 3.380578 -0.501248 2.362189
  H 2.345630 -1.729712 1.651648
  H 4.136359 -1.428658 -0.230893
  H 5.140559 0.905812 -0.949834
  H 4.997111 -1.803052 -3.797515
  H 3.753604 -0.778754 -4.407695
  H 2.259185 -1.478045 -2.432899
  H 3.497937 -2.662200 -2.005319
