 16
 0.000000
  C 0.981261 0.053970 0.194368
  C 2.484157 0.057293 0.151837
  C 3.212994 -0.018645 1.458899
  H 2.518221 -0.070315 2.292425
  C 3.120736 0.124041 -1.027711
  H 2.530077 0.177031 -1.933867
  C 4.548905 0.133345 -1.220518
  C 5.123967 0.201152 -2.418646
  H 6.191816 0.206372 -2.540754
  H 0.612054 0.012672 1.215646
  H 0.581047 -0.804788 -0.346087
  H 0.582244 0.952252 -0.275206
  H 3.847551 0.854702 1.596277
  H 3.852106 -0.898777 1.492103
  H 5.167914 0.081674 -0.335184
  H 4.541487 0.253842 -3.322211
 16
 5.748182
  C 0.988044 0.104043 0.207021
  C 2.450295 0.067260 0.156503
  C 3.205697 -0.018707 1.456808
  H 2.519673 -0.106054 2.298972
  C 3.093949 0.136742 -1.022217
  H 2.506442 0.210139 -1.925721
  C 4.514073 0.112830 -1.211182
  C 5.095883 0.185873 -2.412339
  H 6.167348 0.174387 -2.530629
  H 0.574628 0.017871 1.191128
  H 0.859777 -0.799720 -0.370184
  H 0.556820 0.941236 -0.293660
  H 3.815550 0.869327 1.606554
  H 3.868514 -0.880309 1.466964
  H 5.126188 0.037989 -0.329579
  H 4.513325 0.263463 -3.319590
 16
 18.076047
  C 0.971890 0.131527 0.219152
  C 2.423744 0.074339 0.164230
  C 3.195706 -0.020357 1.452851
  H 2.524704 -0.138541 2.290551
  C 3.077249 0.146222 -1.024672
  H 2.486506 0.241240 -1.931882
  C 4.506393 0.096743 -1.215474
  C 5.088914 0.173561 -2.411395
  H 6.158663 0.142598 -2.528147
  H 0.525693 0.003339 1.200641
  H 1.070191 -0.766857 -0.350500
  H 0.514452 0.936012 -0.321464
  H 3.778046 0.880912 1.612499
  H 3.881068 -0.862845 1.443507
  H 5.121928 -0.000638 -0.333127
  H 4.510288 0.274003 -3.315832
 16
 31.661943
  C 0.947248 0.161086 0.239481
  C 2.411139 0.073840 0.160662
  C 3.182656 -0.037610 1.445265
  H 2.509266 -0.176707 2.286297
  C 3.077795 0.154418 -1.042322
  H 2.491490 0.271209 -1.946908
  C 4.501907 0.090597 -1.228353
  C 5.090174 0.173697 -2.417844
  H 6.163859 0.129281 -2.529811
  H 0.499912 0.066514 1.226109
  H 1.226416 -0.764228 -0.251236
  H 0.457000 0.890688 -0.383913
  H 3.752822 0.875462 1.615188
  H 3.882107 -0.871975 1.425468
  H 5.116621 -0.025266 -0.342485
  H 4.516823 0.292523 -3.325345
 16
 42.976082
  C 0.939627 0.186568 0.255608
  C 2.402381 0.077178 0.147113
  C 3.166973 -0.054354 1.431305
  H 2.491717 -0.206516 2.271468
  C 3.070781 0.163045 -1.052095
  H 2.488303 0.293688 -1.959657
  C 4.495023 0.088587 -1.233740
  C 5.093133 0.174290 -2.418122
  H 6.167174 0.121037 -2.521223
  H 0.509511 0.126900 1.243404
  H 1.352474 -0.754414 -0.150391
  H 0.419003 0.836041 -0.434358
  H 3.730107 0.861460 1.610458
  H 3.872088 -0.885678 1.404644
  H 5.102003 -0.037616 -0.352290
  H 4.527647 0.302566 -3.328975
 16
 50.239294
  C 0.936255 0.211043 0.255975
  C 2.399174 0.077533 0.139098
  C 3.157683 -0.070044 1.435280
  H 2.477441 -0.241092 2.267858
  C 3.070621 0.177949 -1.062724
  H 2.486508 0.337727 -1.957807
  C 4.486022 0.081400 -1.243839
  C 5.091501 0.177131 -2.429044
  H 6.162139 0.108421 -2.528932
  H 0.510195 0.230142 1.241033
  H 1.460940 -0.761950 -0.042166
  H 0.393111 0.733547 -0.510579
  H 3.712116 0.846083 1.633257
  H 3.868987 -0.893812 1.398248
  H 5.092959 -0.070388 -0.357000
  H 4.531436 0.333801 -3.338638
 16
 56.086935
  C 0.929872 0.235140 0.259724
  C 2.392885 0.074058 0.136996
  C 3.151679 -0.081384 1.440263
  H 2.470664 -0.264953 2.267962
  C 3.073406 0.191339 -1.072992
  H 2.488798 0.365818 -1.962953
  C 4.482396 0.078285 -1.252866
  C 5.095492 0.179727 -2.438670
  H 6.165201 0.095131 -2.535832
  H 0.498822 0.297774 1.240854
  H 1.538279 -0.762016 0.028669
  H 0.374816 0.653446 -0.549690
  H 3.700746 0.831581 1.650094
  H 3.862340 -0.897454 1.395062
  H 5.084120 -0.092405 -0.369201
  H 4.543163 0.352662 -3.344013
 16
 61.331310
  C 0.931384 0.255588 0.257464
  C 2.392095 0.062204 0.133813
  C 3.154086 -0.089490 1.435314
  H 2.469986 -0.278508 2.270700
  C 3.072773 0.186899 -1.071539
  H 2.477034 0.366093 -1.984371
  C 4.476001 0.073441 -1.245393
  C 5.094329 0.178288 -2.427781
  H 6.149575 0.096498 -2.516220
  H 0.495476 0.322809 1.240605
  H 1.603220 -0.758856 0.045366
  H 0.376422 0.634361 -0.568512
  H 3.700914 0.825600 1.646154
  H 3.866496 -0.903023 1.386906
  H 5.075837 -0.099814 -0.359077
  H 4.537730 0.356793 -3.351920
 16
 65.324024
  C 0.922806 0.279705 0.265272
  C 2.382739 0.052233 0.141452
  C 3.150137 -0.095455 1.438702
  H 2.474061 -0.285251 2.267678
  C 3.068489 0.184115 -1.076745
  H 2.482474 0.356500 -1.966544
  C 4.473276 0.074662 -1.254446
  C 5.091359 0.180313 -2.436626
  H 6.172295 0.098118 -2.528579
  H 0.480195 0.335926 1.235550
  H 1.643446 -0.763943 0.055583
  H 0.365994 0.629113 -0.582718
  H 3.693533 0.820168 1.648084
  H 3.872930 -0.915601 1.385717
  H 5.077084 -0.098842 -0.368449
  H 4.546652 0.349195 -3.337028
 16
 67.876700
  C 0.927580 0.324213 0.269780
  C 2.375718 0.028786 0.146452
  C 3.152313 -0.104311 1.442154
  H 2.479513 -0.286893 2.275569
  C 3.072657 0.173864 -1.083201
  H 2.484292 0.342324 -1.962944
  C 4.474238 0.068177 -1.255655
  C 5.098023 0.180766 -2.437539
  H 6.172284 0.110703 -2.524202
  H 0.464103 0.350075 1.231982
  H 1.674538 -0.794445 0.055283
  H 0.363165 0.624763 -0.592031
  H 3.700858 0.818072 1.640917
  H 3.868104 -0.922010 1.391746
  H 5.074434 -0.102018 -0.371104
  H 4.552288 0.355114 -3.344140
 16
 69.428476
  C 0.935954 0.368442 0.272139
  C 2.371578 0.011199 0.149408
  C 3.154774 -0.109852 1.445794
  H 2.482350 -0.291689 2.284438
  C 3.076066 0.168917 -1.085564
  H 2.482760 0.334978 -1.968655
  C 4.471117 0.068340 -1.253166
  C 5.098486 0.181904 -2.435710
  H 6.168554 0.113266 -2.519385
  H 0.452298 0.350854 1.227153
  H 1.715047 -0.830422 0.041844
  H 0.370033 0.631717 -0.598561
  H 3.697583 0.813530 1.637089
  H 3.873727 -0.926338 1.396858
  H 5.070267 -0.102765 -0.368380
  H 4.550867 0.348254 -3.348145
 16
 70.219252
  C 0.947437 0.405825 0.274825
  C 2.365906 -0.006582 0.150499
  C 3.154233 -0.116908 1.448218
  H 2.483767 -0.299905 2.287975
  C 3.076125 0.159992 -1.088557
  H 2.481720 0.322946 -1.972102
  C 4.467070 0.065428 -1.252081
  C 5.096947 0.180375 -2.435252
  H 6.166931 0.114782 -2.516688
  H 0.450449 0.351060 1.221840
  H 1.755059 -0.867187 0.027969
  H 0.381075 0.645754 -0.602297
  H 3.691157 0.811483 1.635282
  H 3.877508 -0.928066 1.400640
  H 5.066645 -0.102941 -0.365954
  H 4.549604 0.344030 -3.348700
 16
 69.845921
  C 0.960513 0.446371 0.278791
  C 2.357490 -0.026837 0.153988
  C 3.151215 -0.122207 1.451457
  H 2.483584 -0.306269 2.292682
  C 3.077499 0.141894 -1.094410
  H 2.481047 0.306347 -1.975203
  C 4.463587 0.042347 -1.255979
  C 5.096748 0.171746 -2.438540
  H 6.168810 0.142319 -2.512744
  H 0.452137 0.358251 1.217492
  H 1.797144 -0.918847 0.014685
  H 0.394458 0.670298 -0.602877
  H 3.680980 0.813089 1.632026
  H 3.879857 -0.927245 1.406782
  H 5.064396 -0.118547 -0.368901
  H 4.550543 0.347471 -3.350031
 16
 69.225461
  C 0.969402 0.477894 0.286404
  C 2.351504 -0.041841 0.152597
  C 3.151115 -0.127226 1.448713
  H 2.487354 -0.326921 2.291224
  C 3.080275 0.149504 -1.092512
  H 2.483673 0.311211 -1.980604
  C 4.464383 0.060419 -1.249400
  C 5.099924 0.177659 -2.435474
  H 6.166953 0.101773 -2.515368
  H 0.448715 0.349212 1.215677
  H 1.849944 -0.962593 -0.008836
  H 0.398763 0.692414 -0.595881
  H 3.661957 0.813913 1.630533
  H 3.894716 -0.922100 1.398932
  H 5.061314 -0.117100 -0.364479
  H 4.551832 0.332879 -3.351426
